81
-1 1
O        -2.567026    0.704629   -5.150293
C        -1.369818    1.072992   -4.947823
N        -0.345971    0.048618   -5.177988
C        -0.042661   -0.881390   -4.100464
H         0.259977   -1.827440   -4.582798
C         1.115241   -0.457734   -3.186885
C         0.925142   -1.286499   -1.925570
N        -0.523878   -1.396950   -1.825123
C        -1.188040   -1.212354   -3.107068
C        -1.176356   -1.492084   -0.648035
N        -0.427522   -1.672255    0.451884
C        -0.996625   -1.783676    1.643073
N        -0.156493   -1.902212    2.738247
C         1.239095   -1.904442    2.793199
C         1.851063   -1.589567    4.013054
N         3.159036   -1.606784    4.224810
C         3.984825   -1.927580    3.228604
N         5.347255   -1.957958    3.528768
C         5.819529   -1.144103    4.635958
C         7.163276   -1.654155    5.123508
O         8.102541   -1.718171    4.078970
C         7.657270   -2.565515    3.056310
C         6.321418   -2.119311    2.472475
C         3.475078   -2.231786    1.951866
C         2.104131   -2.232015    1.738900
C        -2.407463   -1.759835    1.824035
C        -3.153147   -1.954754    3.090684
N        -2.486332   -2.617730    4.121399
O        -4.295072   -1.573156    3.256430
C        -3.168349   -1.497921    0.669774
C        -2.588664   -1.381719   -0.570262
C        -0.999773    2.352353   -4.580226
C         0.309753    2.816498   -4.108305
S         0.445853    3.028740   -2.199419
C        -1.014694    2.121549   -1.627822
C        -2.340461    2.902322   -1.682349
H        -2.382948    3.468493   -2.619428
N        -2.459732    3.846865   -0.600276
C        -2.544259    5.190929   -0.788966
C        -2.775468    5.987408    0.485588
O        -2.401832    5.740749   -1.863999
C        -3.542482    1.943136   -1.612930
N        -3.839950    1.279026   -2.746189
C        -4.935327    0.345152   -2.801001
O        -4.161644    1.803817   -0.563394
H        -0.751443   -0.495190   -5.936229
H         1.031106    0.606406   -2.927762
H         2.091993   -0.609518   -3.667345
H         1.327478   -0.802953   -1.025802
H         1.390227   -2.289153   -2.004395
H        -1.918097   -0.392332   -3.073310
H        -1.744836   -2.117997   -3.404499
H        -0.612648   -1.751867    3.631160
H         1.225726   -1.305062    4.870089
H         5.075862   -1.182206    5.440216
H         5.923227   -0.083787    4.324162
H         7.032672   -2.657190    5.579158
H         7.573345   -0.977579    5.886706
H         7.549554   -3.601467    3.439632
H         8.428140   -2.566200    2.272339
H         5.991017   -2.895424    1.768375
H         6.458227   -1.179628    1.896280
H         4.130395   -2.457195    1.112010
H         1.691900   -2.455903    0.758385
H        -1.840951   -3.353168    3.851755
H        -3.106739   -2.861713    4.886019
H        -4.248171   -1.392054    0.789395
H        -3.184873   -1.175364   -1.454847
H        -1.824545    3.069451   -4.545576
H         0.563430    3.827881   -4.456930
H         1.111543    2.123451   -4.399520
H        -0.813126    1.802808   -0.593505
H        -1.105105    1.219029   -2.239222
H        -2.838375    3.446790    0.252050
H        -1.799468    6.305674    0.882304
H        -3.296095    5.412444    1.264870
H        -3.352536    6.887304    0.238556
H        -3.306652    1.362074   -3.633306
H        -5.874059    0.826605   -3.126791
H        -5.114113   -0.086305   -1.806021
H        -4.686193   -0.445434   -3.522983
