104
-1 1
C         0.599615   -1.065905    4.372780
O         1.286625   -2.206392    3.940358
C         1.591833   -2.167981    2.563978
C         2.137034   -3.499314    2.097597
C         1.128923   -4.660167    2.165163
N         1.594062   -5.753343    3.011047
C         1.516488   -5.482493    4.437704
C         0.092183   -5.588845    4.983932
N        -0.495156   -6.880700    4.655011
C        -0.446374   -7.156186    3.227369
C         0.991589   -7.039196    2.723150
C        -1.800193   -7.100090    5.247694
C        -2.862042   -6.064392    4.865096
C        -4.294177   -6.461490    5.202743
C        -5.333872   -5.387580    4.888920
O        -5.434003   -5.089196    3.514527
C        -4.500534   -4.296024    2.910096
C        -4.231536   -4.553908    1.564477
C        -3.284076   -3.807325    0.872472
C        -2.558337   -2.799094    1.520048
N        -1.573207   -2.047603    0.827118
C        -0.765781   -2.622538   -0.132630
S         0.303731   -1.388280   -0.819791
C        -0.363558   -0.135979    0.234183
C         0.077968    1.269298    0.271104
S         1.598224    1.617287    1.317471
C         2.904671    0.781898    0.368212
C         4.298849    1.232304    0.845602
H         4.220757    2.290066    1.157897
N         5.282690    1.131817   -0.201060
C         5.341691    2.027571   -1.215876
C         6.462475    1.808816   -2.213288
O         4.534453    2.932686   -1.345449
C         4.830900    0.408475    2.031531
N         4.016902    0.343453    3.106035
C         4.305362   -0.482434    4.257473
O         5.923089   -0.136642    1.972266
C         0.143938    1.962377   -1.092303
C         1.115226    2.901879   -1.455025
C         1.103240    3.505082   -2.712253
C         0.097060    3.186306   -3.614469
O         0.093433    3.759600   -4.874583
C        -0.537283    4.937853   -5.067266
C        -0.480036    5.471511   -6.361345
C        -1.102582    6.678061   -6.653258
C        -1.788187    7.358994   -5.647015
Br        -2.641227    9.010910   -6.042442
C        -1.851701    6.838269   -4.358426
C        -1.227287    5.627319   -4.064291
C        -0.887950    2.261372   -3.279083
C        -0.852175    1.650129   -2.030043
C        -1.352984   -0.622519    1.082859
O        -1.993167   -0.027197    1.960413
O        -0.751338   -3.788359   -0.478639
C        -2.838465   -2.537441    2.865621
C        -3.813848   -3.260619    3.546244
H         0.258600   -1.245747    5.402276
H        -0.269646   -0.833969    3.730860
H         1.250046   -0.168468    4.369088
H         2.323964   -1.365902    2.362193
H         0.686525   -1.903004    1.995240
H         3.034130   -3.764589    2.680389
H         2.472594   -3.358677    1.058336
H         0.963232   -5.062989    1.156073
H         0.140109   -4.263529    2.475617
H         1.900385   -4.471965    4.638651
H         2.156312   -6.211603    4.966344
H        -0.501653   -4.739504    4.583303
H         0.107384   -5.476333    6.081638
H        -1.091224   -6.470104    2.634353
H        -0.820380   -8.179174    3.051751
H         1.023995   -7.223410    1.637966
H         1.594773   -7.822881    3.216451
H        -1.688301   -7.129604    6.347799
H        -2.143072   -8.105907    4.945141
H        -2.788143   -5.878339    3.784452
H        -2.627401   -5.102131    5.347611
H        -4.378988   -6.702422    6.278571
H        -4.564883   -7.380470    4.654208
H        -5.137752   -4.479615    5.486074
H        -6.333379   -5.745772    5.177504
H        -4.774100   -5.362167    1.070619
H        -3.078243   -4.031926   -0.172541
H        -0.681648    1.783157    0.884634
H         2.800227    1.075826   -0.684551
H         2.789899   -0.310952    0.431578
H         6.036377    0.477619   -0.009618
H         6.027373    1.416822   -3.144402
H         7.231548    1.108597   -1.859572
H         6.921064    2.779111   -2.444617
H         3.081626    0.736621    3.020253
H         3.522847   -1.245052    4.395514
H         4.376202    0.126154    5.172590
H         5.268518   -0.978671    4.087411
H         1.917999    3.160800   -0.764128
H         1.886240    4.211976   -2.991722
H         0.063128    4.918431   -7.129090
H        -1.054161    7.088878   -7.662980
H        -2.388976    7.373027   -3.573547
H        -1.276964    5.219987   -3.053942
H        -1.666722    2.017664   -4.004322
H        -1.605081    0.905426   -1.763564
H        -2.312964   -1.731025    3.369719
H        -4.004826   -3.018971    4.592233
