-1 1
 OpenBabel05232414493D

104107  0  0  1  0  0  0  0  0999 V2000
   20.0402    6.5127   -7.3880 C   0  0  0  0  0  0  0  0  0  0  0  0
   20.6589    5.4901   -8.1126 O   0  0  0  0  0  0  0  0  0  0  0  0
   20.4311    5.5851   -9.5028 C   0  0  0  0  0  0  0  0  0  0  0  0
   20.9390    4.3528  -10.2238 C   0  0  0  0  0  0  0  0  0  0  0  0
   20.1425    3.0622   -9.9737 C   0  0  0  0  0  0  0  0  0  0  0  0
   20.8503    2.0630   -9.1808 N   0  0  0  0  0  0  0  0  0  0  0  0
   21.0874    2.4192   -7.7907 C   0  0  0  0  0  0  0  0  0  0  0  0
   19.8146    2.3750   -6.9473 C   0  0  0  0  0  0  0  0  0  0  0  0
   19.1624    1.0763   -7.0517 N   0  0  0  0  0  0  0  0  0  0  0  0
   18.9352    0.6651   -8.4281 C   0  0  0  0  0  0  0  0  0  0  0  0
   20.2341    0.7510   -9.2319 C   0  0  0  0  0  0  0  0  0  0  0  0
   17.9960    0.9387   -6.2042 C   0  0  0  0  0  0  0  0  0  0  0  0
   16.8761    1.9558   -6.4590 C   0  0  0  0  0  0  0  0  0  0  0  0
   15.5517    1.5985   -5.7945 C   0  0  0  0  0  0  0  0  0  0  0  0
   14.4521    2.6393   -5.9818 C   0  0  0  0  0  0  0  0  0  0  0  0
   14.0889    2.8173   -7.3340 O   0  0  0  0  0  0  0  0  0  0  0  0
   14.8227    3.6200   -8.1534 C   0  0  0  0  0  0  0  0  0  0  0  0
   14.8203    3.2931   -9.5125 C   0  0  0  0  0  0  0  0  0  0  0  0
   15.5400    4.0526  -10.4272 C   0  0  0  0  0  0  0  0  0  0  0  0
   16.2983    5.1459   -9.9967 C   0  0  0  0  0  0  0  0  0  0  0  0
   17.0742    5.9031  -10.9167 N   0  0  0  0  0  0  0  0  0  0  0  0
   17.8516    5.2849  -11.8808 C   0  0  0  0  0  0  0  0  0  0  0  0
   18.7714    6.5020  -12.7791 S   0  0  0  0  0  0  0  0  0  0  0  0
   18.0528    7.8337  -11.8597 C   0  0  2  0  0  3  0  0  0  0  0  0
   18.4851    9.1597  -11.8179 C   0  0  0  0  0  3  0  0  0  0  0  0
   20.3832    9.3565  -10.3672 S   0  0  0  0  0  1  0  0  0  0  0  0
   21.6957    9.1466  -11.6097 C   0  0  0  0  0  0  0  0  0  0  0  0
   23.0807    9.6354  -11.1441 C   0  0  2  0  0  0  0  0  0  0  0  0
   22.9249   10.5528  -10.5494 H   0  0  0  0  0  0  0  0  0  0  0  0
   23.9444    9.9350  -12.2614 N   0  0  0  0  0  0  0  0  0  0  0  0
   23.8159   11.0615  -12.9998 C   0  0  0  0  0  0  0  0  0  0  0  0
   24.8170   11.2195  -14.1304 C   0  0  0  0  0  0  0  0  0  0  0  0
   22.9475   11.8951  -12.8044 O   0  0  0  0  0  0  0  0  0  0  0  0
   23.8230    8.6007  -10.2851 C   0  0  0  0  0  0  0  0  0  0  0  0
   23.1282    8.1257   -9.2340 N   0  0  0  0  0  0  0  0  0  0  0  0
   23.6366    7.0931   -8.3633 C   0  0  0  0  0  0  0  0  0  0  0  0
   24.9591    8.2407  -10.5694 O   0  0  0  0  0  0  0  0  0  0  0  0
   19.0197    9.9411  -12.9623 C   0  0  0  0  0  0  0  0  0  0  0  0
   19.3650   11.2904  -12.7672 C   0  0  0  0  0  0  0  0  0  0  0  0
   19.9397   12.0446  -13.7780 C   0  0  0  0  0  0  0  0  0  0  0  0
   20.1592   11.4590  -15.0238 C   0  0  0  0  0  0  0  0  0  0  0  0
   20.7931   12.1703  -16.0244 O   0  0  0  0  0  0  0  0  0  0  0  0
   20.1166   13.1169  -16.7092 C   0  0  0  0  0  0  0  0  0  0  0  0
   20.8702   13.9216  -17.5731 C   0  0  0  0  0  0  0  0  0  0  0  0
   20.2536   14.9059  -18.3344 C   0  0  0  0  0  0  0  0  0  0  0  0
   18.8747   15.0913  -18.2322 C   0  0  0  0  0  0  0  0  0  0  0  0
   18.0277   16.4395  -19.2703 Br  0  0  0  0  0  0  0  0  0  0  0  0
   18.1164   14.2983  -17.3766 C   0  0  0  0  0  0  0  0  0  0  0  0
   18.7340   13.3089  -16.6138 C   0  0  0  0  0  0  0  0  0  0  0  0
   19.7892   10.1437  -15.2629 C   0  0  0  0  0  0  0  0  0  0  0  0
   19.2222    9.3911  -14.2334 C   0  0  0  0  0  0  0  0  0  0  0  0
   17.1801    7.3354  -10.8373 C   0  0  0  0  0  0  0  0  0  0  0  0
   16.5942    7.9738   -9.9788 O   0  0  0  0  0  0  0  0  0  0  0  0
   17.9198    4.0970  -12.1006 O   0  0  0  0  0  0  0  0  0  0  0  0
   16.2894    5.4802   -8.6409 C   0  0  0  0  0  0  0  0  0  0  0  0
   15.5478    4.7358   -7.7281 C   0  0  0  0  0  0  0  0  0  0  0  0
   20.3317    6.4048   -6.3336 H   0  0  0  0  0  0  0  0  0  0  0  0
   18.9383    6.4478   -7.4610 H   0  0  0  0  0  0  0  0  0  0  0  0
   20.3358    7.5142   -7.7519 H   0  0  0  0  0  0  0  0  0  0  0  0
   20.9089    6.4979   -9.9023 H   0  0  0  0  0  0  0  0  0  0  0  0
   19.3460    5.7036   -9.6844 H   0  0  0  0  0  0  0  0  0  0  0  0
   22.0023    4.1842   -9.9861 H   0  0  0  0  0  0  0  0  0  0  0  0
   20.8973    4.5929  -11.2975 H   0  0  0  0  0  0  0  0  0  0  0  0
   19.9134    2.5930  -10.9415 H   0  0  0  0  0  0  0  0  0  0  0  0
   19.1511    3.3358   -9.5540 H   0  0  0  0  0  0  0  0  0  0  0  0
   21.5158    3.4277   -7.7328 H   0  0  0  0  0  0  0  0  0  0  0  0
   21.8182    1.7032   -7.3748 H   0  0  0  0  0  0  0  0  0  0  0  0
   19.1567    3.2104   -7.2677 H   0  0  0  0  0  0  0  0  0  0  0  0
   20.0649    2.5589   -5.8883 H   0  0  0  0  0  0  0  0  0  0  0  0
   18.1569    1.2762   -8.9363 H   0  0  0  0  0  0  0  0  0  0  0  0
   18.5694   -0.3761   -8.4285 H   0  0  0  0  0  0  0  0  0  0  0  0
   20.0396    0.4759  -10.2807 H   0  0  0  0  0  0  0  0  0  0  0  0
   20.9482    0.0166   -8.8185 H   0  0  0  0  0  0  0  0  0  0  0  0
   18.3171    1.0044   -5.1477 H   0  0  0  0  0  0  0  0  0  0  0  0
   17.5966   -0.0823   -6.3420 H   0  0  0  0  0  0  0  0  0  0  0  0
   16.7215    2.0441   -7.5446 H   0  0  0  0  0  0  0  0  0  0  0  0
   17.1986    2.9542   -6.1219 H   0  0  0  0  0  0  0  0  0  0  0  0
   15.6972    1.4584   -4.7076 H   0  0  0  0  0  0  0  0  0  0  0  0
   15.1887    0.6330   -6.1876 H   0  0  0  0  0  0  0  0  0  0  0  0
   14.7420    3.5949   -5.5124 H   0  0  0  0  0  0  0  0  0  0  0  0
   13.5333    2.3045   -5.4779 H   0  0  0  0  0  0  0  0  0  0  0  0
   14.2477    2.4222   -9.8359 H   0  0  0  0  0  0  0  0  0  0  0  0
   15.5385    3.7766  -11.4808 H   0  0  0  0  0  0  0  0  0  0  0  0
   17.8987    9.7487  -11.1083 H   0  0  0  0  0  0  0  0  0  0  0  0
   21.4396    9.7558  -12.4864 H   0  0  0  0  0  0  0  0  0  0  0  0
   21.7624    8.0957  -11.9398 H   0  0  0  0  0  0  0  0  0  0  0  0
   24.7657    9.3404  -12.3272 H   0  0  0  0  0  0  0  0  0  0  0  0
   24.2603   11.2150  -15.0788 H   0  0  0  0  0  0  0  0  0  0  0  0
   25.5830   10.4323  -14.1569 H   0  0  0  0  0  0  0  0  0  0  0  0
   25.3008   12.2017  -14.0381 H   0  0  0  0  0  0  0  0  0  0  0  0
   22.1537    8.4255   -9.1481 H   0  0  0  0  0  0  0  0  0  0  0  0
   22.8462    6.3588   -8.1515 H   0  0  0  0  0  0  0  0  0  0  0  0
   24.0022    7.5079   -7.4084 H   0  0  0  0  0  0  0  0  0  0  0  0
   24.4775    6.5937   -8.8620 H   0  0  0  0  0  0  0  0  0  0  0  0
   19.2459   11.7229  -11.7726 H   0  0  0  0  0  0  0  0  0  0  0  0
   20.2664   13.0693  -13.5985 H   0  0  0  0  0  0  0  0  0  0  0  0
   21.9474   13.7577  -17.6299 H   0  0  0  0  0  0  0  0  0  0  0  0
   20.8460   15.5310  -19.0045 H   0  0  0  0  0  0  0  0  0  0  0  0
   17.0378   14.4452  -17.3000 H   0  0  0  0  0  0  0  0  0  0  0  0
   18.1398   12.6862  -15.9440 H   0  0  0  0  0  0  0  0  0  0  0  0
   19.9591    9.7092  -16.2495 H   0  0  0  0  0  0  0  0  0  0  0  0
   18.9314    8.3615  -14.4421 H   0  0  0  0  0  0  0  0  0  0  0  0
   16.8448    6.3532   -8.3040 H   0  0  0  0  0  0  0  0  0  0  0  0
   15.5633    5.0327   -6.6794 H   0  0  0  0  0  0  0  0  0  0  0  0
  1 57  1  0  0  0  0
  2  1  1  0  0  0  0
  3  2  1  0  0  0  0
  4 62  1  0  0  0  0
  4  5  1  0  0  0  0
  4  3  1  0  0  0  0
  5 65  1  0  0  0  0
  5  6  1  0  0  0  0
  6  7  1  0  0  0  0
  7 66  1  0  0  0  0
  7 67  1  0  0  0  0
  7  8  1  0  0  0  0
  8 69  1  0  0  0  0
  9  8  1  0  0  0  0
  9 12  1  0  0  0  0
 10  9  1  0  0  0  0
 11  6  1  0  0  0  0
 11 73  1  0  0  0  0
 11 10  1  0  0  0  0
 12 74  1  0  0  0  0
 13 12  1  0  0  0  0
 13 77  1  0  0  0  0
 13 14  1  0  0  0  0
 14 78  1  0  0  0  0
 15 14  1  0  0  0  0
 15 80  1  0  0  0  0
 15 81  1  0  0  0  0
 16 15  1  0  0  0  0
 17 56  1  0  0  0  0
 17 16  1  0  0  0  0
 18 17  2  0  0  0  0
 19 20  2  0  0  0  0
 19 18  1  0  0  0  0
 20 55  1  0  0  0  0
 21 52  1  0  0  0  0
 21 20  1  0  0  0  0
 22 21  1  0  0  0  0
 23 22  1  0  0  0  0
 23 24  1  0  0  0  0
 24 25  1  1  0  0  0
 24 52  1  0  0  0  0
 25 84  1  0  0  0  0
 27 28  1  0  0  0  0
 27 26  1  0  0  0  0
 28 29  1  1  0  0  0
 28 34  1  0  0  0  0
 30 28  1  0  0  0  0
 31 33  2  0  0  0  0
 31 30  1  0  0  0  0
 32 90  1  0  0  0  0
 32 31  1  0  0  0  0
 34 35  1  0  0  0  0
 35 91  1  0  0  0  0
 35 36  1  0  0  0  0
 36 92  1  0  0  0  0
 36 93  1  0  0  0  0
 37 34  2  0  0  0  0
 38 39  1  0  0  0  0
 38 25  1  0  0  0  0
 39 95  1  0  0  0  0
 40 96  1  0  0  0  0
 40 39  2  0  0  0  0
 41 40  1  0  0  0  0
 42 41  1  0  0  0  0
 43 49  1  0  0  0  0
 43 42  1  0  0  0  0
 44 43  2  0  0  0  0
 45 46  2  0  0  0  0
 45 44  1  0  0  0  0
 46 48  1  0  0  0  0
 47 46  1  0  0  0  0
 48 99  1  0  0  0  0
 48 49  2  0  0  0  0
 49100  1  0  0  0  0
 50 41  2  0  0  0  0
 50 51  1  0  0  0  0
 51 38  2  0  0  0  0
 52 53  2  0  0  0  0
 54 22  2  0  0  0  0
 55103  1  0  0  0  0
 55 56  2  0  0  0  0
 56104  1  0  0  0  0
 58  1  1  0  0  0  0
 59  1  1  0  0  0  0
 60  3  1  0  0  0  0
 61  3  1  0  0  0  0
 63  4  1  0  0  0  0
 64  5  1  0  0  0  0
 68  8  1  0  0  0  0
 70 10  1  0  0  0  0
 71 10  1  0  0  0  0
 72 11  1  0  0  0  0
 75 12  1  0  0  0  0
 76 13  1  0  0  0  0
 79 14  1  0  0  0  0
 82 18  1  0  0  0  0
 83 19  1  0  0  0  0
 85 27  1  0  0  0  0
 86 27  1  0  0  0  0
 87 30  1  0  0  0  0
 88 32  1  0  0  0  0
 89 32  1  0  0  0  0
 94 36  1  0  0  0  0
 97 44  1  0  0  0  0
 98 45  1  0  0  0  0
101 50  1  0  0  0  0
102 51  1  0  0  0  0
M  END
