104
-1 1
C        -0.214009   -0.754841    4.591811
O         0.406316   -1.701225    3.768093
C         0.410296   -1.306533    2.411473
C         1.257130   -2.242212    1.574065
C         0.782305   -3.704178    1.564400
N         1.728042   -4.643414    2.151252
C         2.028716   -4.449288    3.559785
C         0.899653   -4.915040    4.476251
N         0.546829   -6.303051    4.203665
C         0.230787   -6.524286    2.801192
C         1.381765   -6.032575    1.919196
C        -0.425134   -6.853541    5.126867
C        -1.762470   -6.107904    5.161573
C        -2.844982   -6.742473    6.028605
C        -4.094808   -5.883691    6.216251
O        -4.853238   -5.706226    5.034166
C        -4.389857   -4.906659    4.039030
C        -4.686334   -5.297557    2.730299
C        -4.187774   -4.579547    1.649998
C        -3.362595   -3.476192    1.868511
N        -2.753695   -2.794554    0.773147
C        -2.059253   -3.491700   -0.206107
S        -1.276283   -2.352674   -1.332617
C        -1.862843   -0.950869   -0.436052
C        -1.600800    0.358851   -0.621601
S         0.795886    2.399965    2.084529
C         1.613770    1.707808    0.607865
C         3.152819    1.605398    0.659577
H         3.539747    2.583446    0.990994
N         3.700475    1.284680   -0.642692
C         3.810915    2.172401   -1.641898
C         4.413034    1.655776   -2.934869
O         3.453634    3.342336   -1.541090
C         3.654819    0.509185    1.608252
N         3.269540    0.659226    2.885662
C         3.547088   -0.330953    3.894586
O         4.346895   -0.419474    1.193308
C        -0.788493    1.031773   -1.626238
C        -0.806838    2.435753   -1.655715
C        -0.065249    3.160309   -2.580669
C         0.739583    2.476929   -3.494107
O         1.487907    3.083977   -4.454535
C         1.516282    4.453415   -4.555836
C         2.318151    5.204100   -3.698036
C         2.371904    6.586560   -3.860804
C         1.632428    7.192500   -4.875783
Br         1.716568    9.078334   -5.098420
C         0.831406    6.441192   -5.732872
C         0.772832    5.059210   -5.566169
C         0.801622    1.080338   -3.465044
C         0.043688    0.371055   -2.548416
C        -2.734251   -1.387100    0.685408
O        -3.341224   -0.668794    1.436234
O        -1.976980   -4.684475   -0.313304
C        -3.099419   -3.057424    3.172577
C        -3.637508   -3.747069    4.251876
H        -0.167895   -1.125990    5.626085
H        -1.275622   -0.601403    4.312929
H         0.280690    0.230819    4.521915
H         0.755653   -0.261162    2.325275
H        -0.632916   -1.306604    2.037765
H         2.314490   -2.186961    1.875816
H         1.233950   -1.842898    0.547348
H         0.634820   -4.033683    0.524324
H        -0.224072   -3.754704    2.036761
H         2.232408   -3.388037    3.753273
H         2.942729   -5.022806    3.794830
H         0.046171   -4.218331    4.343609
H         1.220063   -4.832049    5.529024
H        -0.707153   -6.016741    2.483695
H         0.076984   -7.604490    2.637796
H         1.119701   -6.172856    0.858669
H         2.270698   -6.652236    2.133991
H         0.017939   -6.860173    6.140569
H        -0.596988   -7.910909    4.856089
H        -2.126893   -6.010100    4.129438
H        -1.582683   -5.080738    5.514967
H        -2.441681   -6.946048    7.037569
H        -3.147231   -7.718601    5.611539
H        -3.826686   -4.911682    6.667347
H        -4.784721   -6.378637    6.914557
H        -5.287580   -6.195285    2.579212
H        -4.402848   -4.905995    0.632755
H        -2.081252    1.010829    0.115853
H         1.397002    2.347080   -0.257654
H         1.226209    0.700256    0.363802
H         4.118916    0.358905   -0.694929
H         3.725722    1.908926   -3.754857
H         4.599213    0.573092   -2.929927
H         5.358421    2.185722   -3.121823
H         2.506786    1.349673    3.032044
H         2.655048   -0.938092    4.121169
H         3.889955    0.150581    4.823941
H         4.337156   -0.998086    3.525329
H        -1.394337    2.974074   -0.909257
H        -0.091289    4.249712   -2.567311
H         2.878044    4.688049   -2.907305
H         2.991450    7.187682   -3.193663
H         0.256870    6.927620   -6.522407
H         0.155117    4.440444   -6.219140
H         1.449936    0.567344   -4.176708
H         0.129533   -0.715391   -2.547735
H        -2.457322   -2.195294    3.347670
H        -3.408047   -3.404448    5.260515
