-1 1
 OpenBabel05192410563D

102107  0  0  1  0  0  0  0  0999 V2000
    5.5617    3.5271   11.6470 O   0  0  0  0  0  0  0  0  0  0  0  0
    6.3444    2.7716   11.0910 C   0  0  0  0  0  0  0  0  0  0  0  0
    5.9586    1.9752   10.0474 N   0  0  0  0  0  0  0  0  0  0  0  0
    6.7171    0.8882    9.4508 C   0  0  0  0  0  0  0  0  0  0  0  0
    5.9613   -0.4390    9.6192 C   0  0  0  0  0  0  0  0  0  0  0  0
    4.5956   -0.3922    9.1330 N   0  0  0  0  0  0  0  0  0  0  0  0
    3.8814    0.7166    9.7433 C   0  0  0  0  0  0  0  0  0  0  0  0
    4.5873    2.0617    9.5610 C   0  0  0  0  0  0  0  0  0  0  0  0
    4.4542   -0.5158    7.6903 C   0  0  0  0  0  0  0  0  0  0  0  0
    4.5744   -1.9633    7.2141 C   0  0  0  0  0  0  0  0  0  0  0  0
    4.5851   -2.1191    5.6954 C   0  0  0  0  0  0  0  0  0  0  0  0
    3.3142   -1.6381    5.0163 C   0  0  0  0  0  0  0  0  0  0  0  0
    3.4111   -1.9454    3.6549 O   0  0  0  0  0  0  0  0  0  0  0  0
    2.4028   -1.5752    2.8195 C   0  0  0  0  0  0  0  0  0  0  0  0
    2.5847   -1.8637    1.4614 C   0  0  0  0  0  0  0  0  0  0  0  0
    1.6109   -1.5351    0.5319 C   0  0  0  0  0  0  0  0  0  0  0  0
    0.4319   -0.8965    0.9456 C   0  0  0  0  0  0  0  0  0  0  0  0
   -0.5748   -0.5899   -0.0071 N   0  0  0  0  0  0  0  0  0  0  0  0
   -1.8904   -0.9309    0.2026 C   0  0  0  0  0  0  0  0  0  0  0  0
   -2.8133   -0.6389   -1.2874 S   0  0  0  0  0  0  0  0  0  0  0  0
   -1.3561   -0.1315   -2.1586 C   0  0  2  0  0  3  0  0  0  0  0  0
   -1.2909    0.1715   -3.5994 C   0  0  1  0  0  0  0  0  0  0  0  0
   -1.0264   -1.3343   -4.7342 S   0  0  0  0  0  0  0  0  0  0  0  0
    0.4809   -2.0226   -3.9792 C   0  0  0  0  0  0  0  0  0  0  0  0
    0.3048   -3.3758   -3.2921 C   0  0  2  0  0  0  0  0  0  0  0  0
    0.0280   -4.1476   -4.0313 H   0  0  0  0  0  0  0  0  0  0  0  0
   -0.7479   -3.3415   -2.2912 N   0  0  0  0  0  0  0  0  0  0  0  0
   -1.4240   -4.4493   -1.9105 C   0  0  0  0  0  0  0  0  0  0  0  0
   -2.6120   -4.2294   -1.0050 C   0  0  0  0  0  0  0  0  0  0  0  0
   -1.0904   -5.5766   -2.2742 O   0  0  0  0  0  0  0  0  0  0  0  0
    1.6479   -3.8065   -2.6534 C   0  0  0  0  0  0  0  0  0  0  0  0
    1.6705   -5.1013   -2.2579 N   0  0  0  0  0  0  0  0  0  0  0  0
    2.7654   -5.6460   -1.4995 C   0  0  0  0  0  0  0  0  0  0  0  0
    2.5876   -3.0399   -2.5249 O   0  0  0  0  0  0  0  0  0  0  0  0
   -2.4795    0.9293   -4.1444 C   0  0  0  0  0  0  0  0  0  0  0  0
   -3.7048    0.2961   -4.3888 C   0  0  0  0  0  0  0  0  0  0  0  0
   -4.8070    1.0159   -4.8443 C   0  0  0  0  0  0  0  0  0  0  0  0
   -4.6829    2.3834   -5.0601 C   0  0  0  0  0  0  0  0  0  0  0  0
   -5.7822    3.1105   -5.4923 O   0  0  0  0  0  0  0  0  0  0  0  0
   -6.0044    3.2637   -6.8084 C   0  0  0  0  0  0  0  0  0  0  0  0
   -7.1372    4.0156   -7.1622 C   0  0  0  0  0  0  0  0  0  0  0  0
   -7.4446    4.2270   -8.4948 C   0  0  0  0  0  0  0  0  0  0  0  0
   -6.6156    3.6838   -9.4770 C   0  0  0  0  0  0  0  0  0  0  0  0
   -6.9377    3.9065  -10.8871 N   0  0  0  0  0  0  0  0  0  0  0  0
   -7.9268    4.5625  -11.1445 O   0  0  0  0  0  0  0  0  0  0  0  0
   -6.1992    3.4243  -11.7206 O   0  0  0  0  0  0  0  0  0  0  0  0
   -5.4904    2.9360   -9.1430 C   0  0  0  0  0  0  0  0  0  0  0  0
   -5.1797    2.7225   -7.8061 C   0  0  0  0  0  0  0  0  0  0  0  0
   -3.4808    3.0403   -4.8200 C   0  0  0  0  0  0  0  0  0  0  0  0
   -2.3877    2.3082   -4.3636 C   0  0  0  0  0  0  0  0  0  0  0  0
   -0.2318   -0.0815   -1.3279 C   0  0  0  0  0  0  0  0  0  0  0  0
    0.9232    0.2677   -1.5850 O   0  0  0  0  0  0  0  0  0  0  0  0
   -2.3794   -1.3862    1.2177 O   0  0  0  0  0  0  0  0  0  0  0  0
    0.2541   -0.6029    2.2941 C   0  0  0  0  0  0  0  0  0  0  0  0
    1.2289   -0.9443    3.2351 C   0  0  0  0  0  0  0  0  0  0  0  0
    7.7747    2.7054   11.5504 C   0  0  0  0  0  0  0  0  0  0  0  0
    8.2778    3.8874   12.3403 C   0  0  0  0  0  0  0  0  0  0  0  0
    7.9980    2.6044   13.0453 C   0  0  0  0  0  0  0  0  0  0  0  0
    7.7050    0.8007    9.9143 H   0  0  0  0  0  0  0  0  0  0  0  0
    6.8767    1.1032    8.3785 H   0  0  0  0  0  0  0  0  0  0  0  0
    5.9448   -0.6908   10.6944 H   0  0  0  0  0  0  0  0  0  0  0  0
    6.5130   -1.2424    9.1084 H   0  0  0  0  0  0  0  0  0  0  0  0
    3.7877    0.5181   10.8255 H   0  0  0  0  0  0  0  0  0  0  0  0
    2.8615    0.7647    9.3327 H   0  0  0  0  0  0  0  0  0  0  0  0
    4.0821    2.8583   10.1188 H   0  0  0  0  0  0  0  0  0  0  0  0
    4.6058    2.3400    8.4915 H   0  0  0  0  0  0  0  0  0  0  0  0
    5.1785    0.1116    7.1246 H   0  0  0  0  0  0  0  0  0  0  0  0
    3.4589   -0.1285    7.4224 H   0  0  0  0  0  0  0  0  0  0  0  0
    3.7496   -2.5446    7.6587 H   0  0  0  0  0  0  0  0  0  0  0  0
    5.5027   -2.4018    7.6149 H   0  0  0  0  0  0  0  0  0  0  0  0
    4.7250   -3.1790    5.4323 H   0  0  0  0  0  0  0  0  0  0  0  0
    5.4412   -1.5760    5.2606 H   0  0  0  0  0  0  0  0  0  0  0  0
    3.1809   -0.5474    5.1528 H   0  0  0  0  0  0  0  0  0  0  0  0
    2.4322   -2.1323    5.4710 H   0  0  0  0  0  0  0  0  0  0  0  0
    3.5066   -2.3557    1.1467 H   0  0  0  0  0  0  0  0  0  0  0  0
    1.7768   -1.7536   -0.5235 H   0  0  0  0  0  0  0  0  0  0  0  0
   -0.3820    0.7713   -3.7444 H   0  0  0  0  0  0  0  0  0  0  0  0
    0.8864   -1.2894   -3.2661 H   0  0  0  0  0  0  0  0  0  0  0  0
    1.2348   -2.1353   -4.7691 H   0  0  0  0  0  0  0  0  0  0  0  0
   -1.1099   -2.4195   -2.0491 H   0  0  0  0  0  0  0  0  0  0  0  0
   -3.3948   -3.6671   -1.5341 H   0  0  0  0  0  0  0  0  0  0  0  0
   -2.3420   -3.6387   -0.1173 H   0  0  0  0  0  0  0  0  0  0  0  0
   -2.9982   -5.2082   -0.6990 H   0  0  0  0  0  0  0  0  0  0  0  0
    0.7806   -5.6041   -2.3126 H   0  0  0  0  0  0  0  0  0  0  0  0
    2.5187   -5.7367   -0.4277 H   0  0  0  0  0  0  0  0  0  0  0  0
    3.6237   -4.9689   -1.5979 H   0  0  0  0  0  0  0  0  0  0  0  0
    3.0470   -6.6413   -1.8769 H   0  0  0  0  0  0  0  0  0  0  0  0
   -3.7932   -0.7802   -4.2228 H   0  0  0  0  0  0  0  0  0  0  0  0
   -5.7635    0.5251   -5.0336 H   0  0  0  0  0  0  0  0  0  0  0  0
   -7.7595    4.4229   -6.3645 H   0  0  0  0  0  0  0  0  0  0  0  0
   -8.3174    4.8067   -8.7933 H   0  0  0  0  0  0  0  0  0  0  0  0
   -4.8666    2.5266   -9.9371 H   0  0  0  0  0  0  0  0  0  0  0  0
   -4.3011    2.1373   -7.5331 H   0  0  0  0  0  0  0  0  0  0  0  0
   -3.4113    4.1160   -4.9922 H   0  0  0  0  0  0  0  0  0  0  0  0
   -1.4417    2.8170   -4.1646 H   0  0  0  0  0  0  0  0  0  0  0  0
   -0.6667   -0.1210    2.6215 H   0  0  0  0  0  0  0  0  0  0  0  0
    1.0498   -0.7107    4.2849 H   0  0  0  0  0  0  0  0  0  0  0  0
    8.5065    2.2097   10.9134 H   0  0  0  0  0  0  0  0  0  0  0  0
    7.5614    4.6993   12.4804 H   0  0  0  0  0  0  0  0  0  0  0  0
    9.3170    4.1843   12.1827 H   0  0  0  0  0  0  0  0  0  0  0  0
    7.0979    2.5606   13.6631 H   0  0  0  0  0  0  0  0  0  0  0  0
    8.8344    1.9922   13.3905 H   0  0  0  0  0  0  0  0  0  0  0  0
  2 56  1  0  0  0  0
  2  1  2  0  0  0  0
  3  2  1  0  0  0  0
  4  5  1  0  0  0  0
  4 59  1  0  0  0  0
  4  3  1  0  0  0  0
  5 61  1  0  0  0  0
  6  5  1  0  0  0  0
  6  7  1  0  0  0  0
  7 63  1  0  0  0  0
  8  7  1  0  0  0  0
  8  3  1  0  0  0  0
  8 65  1  0  0  0  0
  9  6  1  0  0  0  0
 10 70  1  0  0  0  0
 10 69  1  0  0  0  0
 10  9  1  0  0  0  0
 11 10  1  0  0  0  0
 12 73  1  0  0  0  0
 12 74  1  0  0  0  0
 12 11  1  0  0  0  0
 13 12  1  0  0  0  0
 14 55  1  0  0  0  0
 14 13  1  0  0  0  0
 15 14  2  0  0  0  0
 16 17  2  0  0  0  0
 16 15  1  0  0  0  0
 17 54  1  0  0  0  0
 18 19  1  0  0  0  0
 18 17  1  0  0  0  0
 19 53  2  0  0  0  0
 20 19  1  0  0  0  0
 21 22  1  6  0  0  0
 21 51  1  0  0  0  0
 21 20  1  0  0  0  0
 22 77  1  6  0  0  0
 23 24  1  0  0  0  0
 23 22  1  0  0  0  0
 24 25  1  0  0  0  0
 24 78  1  0  0  0  0
 25 26  1  6  0  0  0
 25 31  1  0  0  0  0
 25 27  1  0  0  0  0
 27 80  1  0  0  0  0
 27 28  1  0  0  0  0
 28 29  1  0  0  0  0
 29 83  1  0  0  0  0
 29 82  1  0  0  0  0
 30 28  2  0  0  0  0
 31 34  2  0  0  0  0
 31 32  1  0  0  0  0
 32 33  1  0  0  0  0
 33 85  1  0  0  0  0
 35 22  1  0  0  0  0
 36 88  1  0  0  0  0
 36 35  2  0  0  0  0
 37 36  1  0  0  0  0
 38 37  2  0  0  0  0
 38 49  1  0  0  0  0
 39 38  1  0  0  0  0
 40 39  1  0  0  0  0
 41 40  1  0  0  0  0
 41 90  1  0  0  0  0
 42 41  2  0  0  0  0
 43 47  2  0  0  0  0
 43 42  1  0  0  0  0
 44 43  1  0  0  0  0
 45 44  2  0  0  0  0
 46 44  2  0  0  0  0
 47 48  1  0  0  0  0
 48 93  1  0  0  0  0
 48 40  2  0  0  0  0
 49 50  2  0  0  0  0
 50 95  1  0  0  0  0
 50 35  1  0  0  0  0
 51 18  1  0  0  0  0
 52 51  2  0  0  0  0
 54 96  1  0  0  0  0
 54 55  2  0  0  0  0
 55 97  1  0  0  0  0
 56 57  1  0  0  0  0
 56 58  1  0  0  0  0
 57 99  1  0  0  0  0
 57 58  1  0  0  0  0
 58102  1  0  0  0  0
 58101  1  0  0  0  0
 60  4  1  0  0  0  0
 62  5  1  0  0  0  0
 64  7  1  0  0  0  0
 66  8  1  0  0  0  0
 67  9  1  0  0  0  0
 68  9  1  0  0  0  0
 71 11  1  0  0  0  0
 72 11  1  0  0  0  0
 75 15  1  0  0  0  0
 76 16  1  0  0  0  0
 79 24  1  0  0  0  0
 81 29  1  0  0  0  0
 84 32  1  0  0  0  0
 86 33  1  0  0  0  0
 87 33  1  0  0  0  0
 89 37  1  0  0  0  0
 91 42  1  0  0  0  0
 92 47  1  0  0  0  0
 94 49  1  0  0  0  0
 98 56  1  0  0  0  0
100 57  1  0  0  0  0
M  END
