-1 1
 OpenBabel05232414493D

102106  0  0  1  0  0  0  0  0999 V2000
   13.2172   19.7702   29.1713 O   0  0  0  0  0  0  0  0  0  0  0  0
   14.0242   19.1505   28.4952 C   0  0  0  0  0  0  0  0  0  0  0  0
   13.6542   18.5025   27.3479 N   0  0  0  0  0  0  0  0  0  0  0  0
   14.4525   17.5641   26.5768 C   0  0  0  0  0  0  0  0  0  0  0  0
   13.7694   16.1882   26.5464 C   0  0  0  0  0  0  0  0  0  0  0  0
   12.3918   16.2371   26.0944 N   0  0  0  0  0  0  0  0  0  0  0  0
   11.6369   17.1970   26.8828 C   0  0  0  0  0  0  0  0  0  0  0  0
   12.2691   18.5899   26.9032 C   0  0  0  0  0  0  0  0  0  0  0  0
   12.2227   16.3335   24.6531 C   0  0  0  0  0  0  0  0  0  0  0  0
   12.4063   14.9868   23.9536 C   0  0  0  0  0  0  0  0  0  0  0  0
   12.3850   15.0690   22.4292 C   0  0  0  0  0  0  0  0  0  0  0  0
   11.0694   15.5662   21.8559 C   0  0  0  0  0  0  0  0  0  0  0  0
   11.1490   15.4786   20.4600 O   0  0  0  0  0  0  0  0  0  0  0  0
   10.0928   15.8795   19.7080 C   0  0  0  0  0  0  0  0  0  0  0  0
   10.2487   15.7852   18.3198 C   0  0  0  0  0  0  0  0  0  0  0  0
    9.2229   16.1561   17.4647 C   0  0  0  0  0  0  0  0  0  0  0  0
    8.0199   16.6409   17.9908 C   0  0  0  0  0  0  0  0  0  0  0  0
    6.9544   17.0071   17.1178 N   0  0  0  0  0  0  0  0  0  0  0  0
    5.6667   16.5485   17.3233 C   0  0  0  0  0  0  0  0  0  0  0  0
    4.5898   17.1827   16.0581 S   0  0  0  0  0  0  0  0  0  0  0  0
    5.9335   17.9433   15.2000 C   0  0  2  0  0  3  0  0  0  0  0  0
    5.9314   18.4518   13.9284 C   0  0  0  0  0  3  0  0  0  0  0  0
    6.2647   16.4726   12.1930 S   0  0  0  0  0  1  0  0  0  0  0  0
    7.7668   15.8352   12.9946 C   0  0  0  0  0  0  0  0  0  0  0  0
    7.6106   14.4843   13.7101 C   0  0  2  0  0  0  0  0  0  0  0  0
    7.5266   13.6710   12.9646 H   0  0  0  0  0  0  0  0  0  0  0  0
    6.3864   14.5056   14.5026 N   0  0  0  0  0  0  0  0  0  0  0  0
    5.7201   13.4023   14.9128 C   0  0  0  0  0  0  0  0  0  0  0  0
    4.3153   13.6368   15.4204 C   0  0  0  0  0  0  0  0  0  0  0  0
    6.2160   12.2771   14.9261 O   0  0  0  0  0  0  0  0  0  0  0  0
    8.8760   14.1958   14.5521 C   0  0  0  0  0  0  0  0  0  0  0  0
    8.8270   13.0666   15.2899 N   0  0  0  0  0  0  0  0  0  0  0  0
    9.8942   12.6751   16.1709 C   0  0  0  0  0  0  0  0  0  0  0  0
    9.8506   14.9352   14.5226 O   0  0  0  0  0  0  0  0  0  0  0  0
    4.7858   18.9178   13.1278 C   0  0  0  0  0  0  0  0  0  0  0  0
    3.4905   18.3873   13.2300 C   0  0  0  0  0  0  0  0  0  0  0  0
    2.4566   18.8583   12.4275 C   0  0  0  0  0  0  0  0  0  0  0  0
    2.7096   19.8710   11.5090 C   0  0  0  0  0  0  0  0  0  0  0  0
    1.6828   20.3359   10.7028 O   0  0  0  0  0  0  0  0  0  0  0  0
    1.4700   19.7535    9.5080 C   0  0  0  0  0  0  0  0  0  0  0  0
    0.4157   20.2793    8.7434 C   0  0  0  0  0  0  0  0  0  0  0  0
    0.1235   19.7449    7.5007 C   0  0  0  0  0  0  0  0  0  0  0  0
    0.8894   18.6812    7.0229 C   0  0  0  0  0  0  0  0  0  0  0  0
    0.5819   18.1165    5.7080 N   0  0  0  0  0  0  0  0  0  0  0  0
   -0.3391   18.6056    5.0843 O   0  0  0  0  0  0  0  0  0  0  0  0
    1.2623   17.1932    5.3132 O   0  0  0  0  0  0  0  0  0  0  0  0
    1.9367   18.1486    7.7693 C   0  0  0  0  0  0  0  0  0  0  0  0
    2.2325   18.6831    9.0172 C   0  0  0  0  0  0  0  0  0  0  0  0
    3.9784   20.4284   11.3939 C   0  0  0  0  0  0  0  0  0  0  0  0
    5.0042   19.9479   12.1997 C   0  0  0  0  0  0  0  0  0  0  0  0
    7.1710   17.8120   15.9625 C   0  0  0  0  0  0  0  0  0  0  0  0
    8.2489   18.3016   15.7068 O   0  0  0  0  0  0  0  0  0  0  0  0
    5.2845   15.8411   18.2225 O   0  0  0  0  0  0  0  0  0  0  0  0
    7.8658   16.7496   19.3691 C   0  0  0  0  0  0  0  0  0  0  0  0
    8.8923   16.3644   20.2331 C   0  0  0  0  0  0  0  0  0  0  0  0
   15.4656   19.0909   28.9181 C   0  0  0  0  0  0  0  0  0  0  0  0
   15.9279   20.1685   29.8668 C   0  0  0  0  0  0  0  0  0  0  0  0
   15.7265   18.7834   30.3784 C   0  0  0  0  0  0  0  0  0  0  0  0
   15.4543   17.4588   27.0055 H   0  0  0  0  0  0  0  0  0  0  0  0
   14.5758   17.9517   25.5491 H   0  0  0  0  0  0  0  0  0  0  0  0
   13.7905   15.7711   27.5687 H   0  0  0  0  0  0  0  0  0  0  0  0
   14.3489   15.5050   25.9076 H   0  0  0  0  0  0  0  0  0  0  0  0
   11.5796   16.8268   27.9215 H   0  0  0  0  0  0  0  0  0  0  0  0
   10.6062   17.2533   26.5012 H   0  0  0  0  0  0  0  0  0  0  0  0
   11.7387   19.2610   27.5884 H   0  0  0  0  0  0  0  0  0  0  0  0
   12.2469   19.0333   25.8909 H   0  0  0  0  0  0  0  0  0  0  0  0
   12.9000   17.0803   24.1819 H   0  0  0  0  0  0  0  0  0  0  0  0
   11.2024   16.7028   24.4653 H   0  0  0  0  0  0  0  0  0  0  0  0
   11.6261   14.2973   24.3167 H   0  0  0  0  0  0  0  0  0  0  0  0
   13.3670   14.5447   24.2631 H   0  0  0  0  0  0  0  0  0  0  0  0
   12.5810   14.0735   22.0016 H   0  0  0  0  0  0  0  0  0  0  0  0
   13.1947   15.7261   22.0694 H   0  0  0  0  0  0  0  0  0  0  0  0
   10.8731   16.6120   22.1611 H   0  0  0  0  0  0  0  0  0  0  0  0
   10.2318   14.9510   22.2405 H   0  0  0  0  0  0  0  0  0  0  0  0
   11.1906   15.4061   17.9205 H   0  0  0  0  0  0  0  0  0  0  0  0
    9.3709   16.0729   16.3871 H   0  0  0  0  0  0  0  0  0  0  0  0
    6.9014   18.8523   13.6249 H   0  0  0  0  0  0  0  0  0  0  0  0
    8.1167   16.5678   13.7375 H   0  0  0  0  0  0  0  0  0  0  0  0
    8.5843   15.7361   12.2685 H   0  0  0  0  0  0  0  0  0  0  0  0
    5.8075   15.3151   14.2564 H   0  0  0  0  0  0  0  0  0  0  0  0
    3.7821   14.3894   14.8238 H   0  0  0  0  0  0  0  0  0  0  0  0
    4.3664   14.0021   16.4582 H   0  0  0  0  0  0  0  0  0  0  0  0
    3.7761   12.6824   15.4055 H   0  0  0  0  0  0  0  0  0  0  0  0
    7.9615   12.5192   15.2394 H   0  0  0  0  0  0  0  0  0  0  0  0
    9.6251   12.8201   17.2311 H   0  0  0  0  0  0  0  0  0  0  0  0
   10.7712   13.2976   15.9507 H   0  0  0  0  0  0  0  0  0  0  0  0
   10.1592   11.6165   16.0201 H   0  0  0  0  0  0  0  0  0  0  0  0
    3.2900   17.5577   13.9076 H   0  0  0  0  0  0  0  0  0  0  0  0
    1.4549   18.4296   12.4932 H   0  0  0  0  0  0  0  0  0  0  0  0
   -0.1588   21.1110    9.1530 H   0  0  0  0  0  0  0  0  0  0  0  0
   -0.6888   20.1347    6.8883 H   0  0  0  0  0  0  0  0  0  0  0  0
    2.5144   17.3170    7.3667 H   0  0  0  0  0  0  0  0  0  0  0  0
    3.0516   18.2701    9.6078 H   0  0  0  0  0  0  0  0  0  0  0  0
    4.1552   21.2204   10.6638 H   0  0  0  0  0  0  0  0  0  0  0  0
    6.0087   20.3631   12.0958 H   0  0  0  0  0  0  0  0  0  0  0  0
    6.9270   17.1195   19.7813 H   0  0  0  0  0  0  0  0  0  0  0  0
    8.7343   16.4486   21.3083 H   0  0  0  0  0  0  0  0  0  0  0  0
   16.2066   18.7324   28.2045 H   0  0  0  0  0  0  0  0  0  0  0  0
   15.1760   20.9131   30.1358 H   0  0  0  0  0  0  0  0  0  0  0  0
   16.9476   20.5385   29.7395 H   0  0  0  0  0  0  0  0  0  0  0  0
   14.8435   18.6031   30.9961 H   0  0  0  0  0  0  0  0  0  0  0  0
   16.5992   18.1710   30.6169 H   0  0  0  0  0  0  0  0  0  0  0  0
  2 56  1  0  0  0  0
  2  1  2  0  0  0  0
  3  2  1  0  0  0  0
  4 59  1  0  0  0  0
  4  3  1  0  0  0  0
  5  4  1  0  0  0  0
  5 61  1  0  0  0  0
  6  5  1  0  0  0  0
  6  7  1  0  0  0  0
  7  8  1  0  0  0  0
  7 63  1  0  0  0  0
  8  3  1  0  0  0  0
  8 65  1  0  0  0  0
  9  6  1  0  0  0  0
 10 70  1  0  0  0  0
 10 69  1  0  0  0  0
 10  9  1  0  0  0  0
 11 10  1  0  0  0  0
 12 73  1  0  0  0  0
 12 74  1  0  0  0  0
 12 11  1  0  0  0  0
 13 12  1  0  0  0  0
 14 55  1  0  0  0  0
 14 13  1  0  0  0  0
 15 14  2  0  0  0  0
 16 17  2  0  0  0  0
 16 15  1  0  0  0  0
 17 54  1  0  0  0  0
 18 19  1  0  0  0  0
 18 17  1  0  0  0  0
 19 53  2  0  0  0  0
 20 19  1  0  0  0  0
 21 22  1  6  0  0  0
 21 51  1  0  0  0  0
 21 20  1  0  0  0  0
 23 24  1  0  0  0  0
 24 25  1  0  0  0  0
 24 78  1  0  0  0  0
 25 26  1  6  0  0  0
 25 27  1  0  0  0  0
 25 31  1  0  0  0  0
 27 28  1  0  0  0  0
 28 30  2  0  0  0  0
 28 29  1  0  0  0  0
 29 82  1  0  0  0  0
 31 32  1  0  0  0  0
 32 33  1  0  0  0  0
 33 85  1  0  0  0  0
 34 31  2  0  0  0  0
 35 36  1  0  0  0  0
 35 22  1  0  0  0  0
 36 88  1  0  0  0  0
 37 89  1  0  0  0  0
 37 36  2  0  0  0  0
 38 37  1  0  0  0  0
 39 38  1  0  0  0  0
 40 39  1  0  0  0  0
 41 90  1  0  0  0  0
 41 40  2  0  0  0  0
 42 41  1  0  0  0  0
 43 42  2  0  0  0  0
 43 47  1  0  0  0  0
 44 43  1  0  0  0  0
 45 44  2  0  0  0  0
 46 44  2  0  0  0  0
 47 48  2  0  0  0  0
 48 40  1  0  0  0  0
 48 93  1  0  0  0  0
 49 38  2  0  0  0  0
 49 50  1  0  0  0  0
 50 35  2  0  0  0  0
 51 18  1  0  0  0  0
 52 51  2  0  0  0  0
 54 96  1  0  0  0  0
 54 55  2  0  0  0  0
 55 97  1  0  0  0  0
 56 57  1  0  0  0  0
 56 58  1  0  0  0  0
 57 99  1  0  0  0  0
 57 58  1  0  0  0  0
 58102  1  0  0  0  0
 58101  1  0  0  0  0
 60  4  1  0  0  0  0
 62  5  1  0  0  0  0
 64  7  1  0  0  0  0
 66  8  1  0  0  0  0
 67  9  1  0  0  0  0
 68  9  1  0  0  0  0
 71 11  1  0  0  0  0
 72 11  1  0  0  0  0
 75 15  1  0  0  0  0
 76 16  1  0  0  0  0
 77 22  1  0  0  0  0
 79 24  1  0  0  0  0
 80 27  1  0  0  0  0
 81 29  1  0  0  0  0
 83 29  1  0  0  0  0
 84 32  1  0  0  0  0
 86 33  1  0  0  0  0
 87 33  1  0  0  0  0
 91 42  1  0  0  0  0
 92 47  1  0  0  0  0
 94 49  1  0  0  0  0
 95 50  1  0  0  0  0
 98 56  1  0  0  0  0
100 57  1  0  0  0  0
M  END
