102
-1 1
O        13.217213   19.770223   29.171251
C        14.024179   19.150505   28.495208
N        13.654189   18.502460   27.347934
C        14.452544   17.564110   26.576817
C        13.769407   16.188249   26.546400
N        12.391755   16.237081   26.094447
C        11.636946   17.196986   26.882759
C        12.269095   18.589928   26.903155
C        12.222724   16.333485   24.653098
C        12.406283   14.986845   23.953561
C        12.385033   15.068955   22.429188
C        11.069425   15.566179   21.855919
O        11.148999   15.478616   20.459951
C        10.092819   15.879493   19.708016
C        10.248663   15.785237   18.319823
C         9.222907   16.156104   17.464675
C         8.019895   16.640918   17.990815
N         6.954436   17.007083   17.117829
C         5.666658   16.548483   17.323307
S         4.589799   17.182703   16.058058
C         5.933533   17.943325   15.199989
C         5.931361   18.451841   13.928360
S         6.264724   16.472643   12.192989
C         7.766826   15.835237   12.994615
C         7.610574   14.484251   13.710084
H         7.526585   13.671036   12.964604
N         6.386420   14.505592   14.502597
C         5.720116   13.402320   14.912815
C         4.315308   13.636841   15.420442
O         6.216014   12.277063   14.926135
C         8.875978   14.195794   14.552130
N         8.827029   13.066631   15.289896
C         9.894247   12.675084   16.170926
O         9.850577   14.935222   14.522584
C         4.785796   18.917818   13.127846
C         3.490535   18.387342   13.229963
C         2.456599   18.858272   12.427511
C         2.709634   19.870993   11.509007
O         1.682843   20.335854   10.702836
C         1.469989   19.753517    9.507976
C         0.415695   20.279272    8.743415
C         0.123511   19.744864    7.500708
C         0.889438   18.681153    7.022924
N         0.581885   18.116535    5.708046
O        -0.339050   18.605550    5.084271
O         1.262250   17.193159    5.313245
C         1.936736   18.148602    7.769280
C         2.232464   18.683051    9.017238
C         3.978407   20.428430   11.393912
C         5.004152   19.947900   12.199695
C         7.171019   17.811969   15.962523
O         8.248860   18.301576   15.706773
O         5.284523   15.841081   18.222472
C         7.865797   16.749582   19.369096
C         8.892262   16.364448   20.233097
C        15.465594   19.090933   28.918133
C        15.927860   20.168513   29.866833
C        15.726516   18.783424   30.378380
H        15.454289   17.458768   27.005529
H        14.575847   17.951716   25.549070
H        13.790509   15.771126   27.568708
H        14.348909   15.504971   25.907640
H        11.579609   16.826800   27.921465
H        10.606212   17.253280   26.501236
H        11.738652   19.260977   27.588395
H        12.246930   19.033261   25.890906
H        12.899953   17.080273   24.181888
H        11.202412   16.702827   24.465295
H        11.626145   14.297314   24.316661
H        13.366977   14.544698   24.263060
H        12.581025   14.073502   22.001638
H        13.194683   15.726097   22.069424
H        10.873077   16.611995   22.161075
H        10.231777   14.951002   22.240516
H        11.190586   15.406132   17.920494
H         9.370881   16.072948   16.387072
H         6.901445   18.852281   13.624901
H         8.116737   16.567824   13.737476
H         8.584267   15.736059   12.268470
H         5.807533   15.315111   14.256438
H         3.782149   14.389389   14.823753
H         4.366425   14.002072   16.458196
H         3.776064   12.682440   15.405509
H         7.961496   12.519240   15.239367
H         9.625127   12.820135   17.231082
H        10.771197   13.297595   15.950665
H        10.159201   11.616515   16.020056
H         3.289965   17.557703   13.907605
H         1.454935   18.429646   12.493236
H        -0.158834   21.111013    9.153027
H        -0.688795   20.134713    6.888295
H         2.514371   17.316963    7.366658
H         3.051564   18.270109    9.607770
H         4.155199   21.220367   10.663790
H         6.008692   20.363082   12.095785
H         6.926977   17.119532   19.781321
H         8.734345   16.448556   21.308303
H        16.206575   18.732376   28.204543
H        15.175989   20.913066   30.135815
H        16.947574   20.538545   29.739519
H        14.843521   18.603083   30.996091
H        16.599248   18.170966   30.616895
