-1 1
 OpenBabel05232414493D

 69 70  0  0  1  0  0  0  0  0999 V2000
   13.5664   14.2230   -3.0480 C   0  0  0  0  0  0  0  0  0  0  0  0
   13.3313   12.8980   -3.4048 O   0  0  0  0  0  0  0  0  0  0  0  0
   14.4732   12.2265   -3.8510 C   0  0  0  0  0  0  0  0  0  0  0  0
   14.0854   10.7863   -4.1437 C   0  0  0  0  0  0  0  0  0  0  0  0
   15.1769   10.0589   -4.6698 O   0  0  0  0  0  0  0  0  0  0  0  0
   16.1940    9.7539   -3.8196 C   0  0  0  0  0  0  0  0  0  0  0  0
   17.4588   10.2114   -4.0979 C   0  0  0  0  0  0  0  0  0  0  0  0
   15.9705    8.8749   -2.7068 C   0  0  0  0  0  0  0  0  0  0  0  0
   14.7319    8.3499   -2.6035 O   0  0  0  0  0  0  0  0  0  0  0  0
   14.5004    7.3825   -1.6023 C   0  0  0  0  0  0  0  0  0  0  0  0
   17.0100    8.5857   -1.8542 C   0  0  0  0  0  0  0  0  0  0  0  0
   18.3057    9.0969   -2.1147 C   0  0  0  0  0  0  0  0  0  0  0  0
   18.5594    9.8577   -3.2757 C   0  0  0  0  0  0  0  0  0  0  0  0
   19.8256   10.2174   -3.6247 N   0  0  0  0  0  0  0  0  0  0  0  0
   20.7838    9.7714   -2.8543 C   0  0  0  0  0  0  0  0  0  0  0  0
   20.6653    9.0789   -1.6997 N   0  0  0  0  0  0  0  0  0  0  0  0
   19.4472    8.7903   -1.3023 C   0  0  0  0  0  0  0  0  0  0  0  0
   19.2323    8.1507   -0.0984 N   0  0  0  0  0  0  0  0  0  0  0  0
   19.6686    6.8626    0.1807 C   0  0  0  0  0  0  0  0  0  0  0  0
   20.8796    6.3388   -0.0857 C   0  0  0  0  0  0  0  0  0  0  0  0
   21.1292    4.9214    0.2153 C   0  0  0  0  0  0  0  0  0  0  0  0
   19.8721    4.0819    0.3361 C   0  0  2  0  0  3  0  0  0  0  0  0
   18.6810    4.6603    0.8173 C   0  0  2  0  0  3  0  0  0  0  0  0
   17.7051    3.8318    1.2881 O   0  0  0  0  0  0  0  0  0  0  0  0
   16.3513    4.1689    1.0895 C   0  0  0  0  0  0  0  0  0  0  0  0
   18.5302    6.0708    0.7817 C   0  0  0  0  0  0  0  0  0  0  0  0
   17.5203    6.7155    1.1405 O   0  0  0  0  0  0  0  0  0  0  0  0
   19.9689    3.9241   -2.0264 S   0  0  0  0  0  1  0  0  0  0  0  0
   18.6693    5.0907   -2.4594 C   0  0  0  0  0  0  0  0  0  0  0  0
   17.5158    4.4872   -3.2911 C   0  0  2  0  0  0  0  0  0  0  0  0
   17.9684    3.8811   -4.0952 H   0  0  0  0  0  0  0  0  0  0  0  0
   16.6801    5.5050   -3.8829 N   0  0  0  0  0  0  0  0  0  0  0  0
   17.0465    6.1921   -4.9983 C   0  0  0  0  0  0  0  0  0  0  0  0
   15.9385    7.0047   -5.6393 C   0  0  0  0  0  0  0  0  0  0  0  0
   18.1675    6.1353   -5.4696 O   0  0  0  0  0  0  0  0  0  0  0  0
   16.5825    3.5882   -2.4624 C   0  0  0  0  0  0  0  0  0  0  0  0
   17.1776    2.5409   -1.8713 N   0  0  0  0  0  0  0  0  0  0  0  0
   16.4907    1.6175   -1.0045 C   0  0  0  0  0  0  0  0  0  0  0  0
   15.3819    3.8424   -2.3751 O   0  0  0  0  0  0  0  0  0  0  0  0
   20.1595    2.4110    0.7733 Cl  0  0  0  0  0  0  0  0  0  0  0  0
   22.2392    4.4601    0.3670 O   0  0  0  0  0  0  0  0  0  0  0  0
   12.6152   14.6587   -2.7120 H   0  0  0  0  0  0  0  0  0  0  0  0
   13.9458   14.8212   -3.9006 H   0  0  0  0  0  0  0  0  0  0  0  0
   14.3024   14.3060   -2.2239 H   0  0  0  0  0  0  0  0  0  0  0  0
   15.2756   12.2532   -3.0855 H   0  0  0  0  0  0  0  0  0  0  0  0
   14.8856   12.6949   -4.7686 H   0  0  0  0  0  0  0  0  0  0  0  0
   13.3031   10.7659   -4.9146 H   0  0  0  0  0  0  0  0  0  0  0  0
   13.6836   10.3113   -3.2361 H   0  0  0  0  0  0  0  0  0  0  0  0
   17.6278   10.8285   -4.9805 H   0  0  0  0  0  0  0  0  0  0  0  0
   13.4538    7.0741   -1.7075 H   0  0  0  0  0  0  0  0  0  0  0  0
   14.6602    7.7970   -0.5931 H   0  0  0  0  0  0  0  0  0  0  0  0
   15.1480    6.5004   -1.7338 H   0  0  0  0  0  0  0  0  0  0  0  0
   16.8616    7.9031   -1.0163 H   0  0  0  0  0  0  0  0  0  0  0  0
   21.8122    9.9980   -3.1593 H   0  0  0  0  0  0  0  0  0  0  0  0
   18.2821    8.2195    0.2772 H   0  0  0  0  0  0  0  0  0  0  0  0
   21.7010    6.9441   -0.4666 H   0  0  0  0  0  0  0  0  0  0  0  0
   15.7729    3.2760    1.3654 H   0  0  0  0  0  0  0  0  0  0  0  0
   16.1358    4.4092    0.0351 H   0  0  0  0  0  0  0  0  0  0  0  0
   16.0458    5.0215    1.7097 H   0  0  0  0  0  0  0  0  0  0  0  0
   19.0945    5.9263   -3.0319 H   0  0  0  0  0  0  0  0  0  0  0  0
   18.2499    5.5018   -1.5186 H   0  0  0  0  0  0  0  0  0  0  0  0
   15.7005    5.4285   -3.6216 H   0  0  0  0  0  0  0  0  0  0  0  0
   16.3770    7.8879   -6.1184 H   0  0  0  0  0  0  0  0  0  0  0  0
   15.1693    7.3260   -4.9246 H   0  0  0  0  0  0  0  0  0  0  0  0
   15.4622    6.3918   -6.4209 H   0  0  0  0  0  0  0  0  0  0  0  0
   18.2056    2.5414   -1.8835 H   0  0  0  0  0  0  0  0  0  0  0  0
   16.5108    0.5962   -1.4188 H   0  0  0  0  0  0  0  0  0  0  0  0
   15.4460    1.9378   -0.9059 H   0  0  0  0  0  0  0  0  0  0  0  0
   16.9666    1.6084   -0.0127 H   0  0  0  0  0  0  0  0  0  0  0  0
  1 42  1  0  0  0  0
  1 44  1  0  0  0  0
  2  1  1  0  0  0  0
  3  2  1  0  0  0  0
  3 45  1  0  0  0  0
  4  3  1  0  0  0  0
  4 48  1  0  0  0  0
  5  4  1  0  0  0  0
  5  6  1  0  0  0  0
  6  8  1  0  0  0  0
  7  6  2  0  0  0  0
  7 13  1  0  0  0  0
  8  9  1  0  0  0  0
  8 11  2  0  0  0  0
  9 10  1  0  0  0  0
 10 51  1  0  0  0  0
 11 53  1  0  0  0  0
 12 11  1  0  0  0  0
 12 17  1  0  0  0  0
 13 12  2  0  0  0  0
 14 13  1  0  0  0  0
 14 15  2  0  0  0  0
 15 16  1  0  0  0  0
 16 17  2  0  0  0  0
 17 18  1  0  0  0  0
 18 19  1  0  0  0  0
 18 55  1  0  0  0  0
 19 26  1  0  0  0  0
 20 19  2  0  0  0  0
 20 21  1  0  0  0  0
 21 22  1  0  0  0  0
 21 41  2  0  0  0  0
 22 40  1  1  0  0  0
 22 23  1  0  0  0  0
 23 24  1  6  0  0  0
 25 24  1  0  0  0  0
 25 57  1  0  0  0  0
 25 59  1  0  0  0  0
 26 23  1  0  0  0  0
 26 27  2  0  0  0  0
 29 28  1  0  0  0  0
 29 61  1  0  0  0  0
 30 31  1  6  0  0  0
 30 36  1  0  0  0  0
 30 29  1  0  0  0  0
 32 62  1  0  0  0  0
 32 30  1  0  0  0  0
 33 32  1  0  0  0  0
 34 33  1  0  0  0  0
 34 64  1  0  0  0  0
 35 33  2  0  0  0  0
 36 39  2  0  0  0  0
 36 37  1  0  0  0  0
 37 38  1  0  0  0  0
 38 68  1  0  0  0  0
 38 69  1  0  0  0  0
 43  1  1  0  0  0  0
 46  3  1  0  0  0  0
 47  4  1  0  0  0  0
 49  7  1  0  0  0  0
 50 10  1  0  0  0  0
 52 10  1  0  0  0  0
 54 15  1  0  0  0  0
 56 20  1  0  0  0  0
 58 25  1  0  0  0  0
 60 29  1  0  0  0  0
 63 34  1  0  0  0  0
 65 34  1  0  0  0  0
 66 37  1  0  0  0  0
 67 38  1  0  0  0  0
M  END
