103
-1 1
O         1.715468    1.134294    1.903432
C         1.226502    1.343170    0.826137
S         0.495147    2.904928    0.363002
C         0.039818    2.295255   -1.224789
C        -0.659361    2.885540   -2.209914
S        -4.961403    3.274524   -1.395164
C        -4.492403    2.233694    0.038616
C        -3.210604    2.678457    0.775341
H        -2.443218    2.852316    0.003133
N        -2.728083    1.686379    1.715424
C        -2.061305    0.569736    1.380082
C        -1.527213   -0.246147    2.543648
O        -1.868103    0.214732    0.220368
C        -3.365795    3.967996    1.602085
N        -3.936438    4.993287    0.952065
C        -4.254296    6.238489    1.595249
O        -2.980411    4.017909    2.769699
C        -1.280620    4.203619   -2.291883
C        -1.275243    5.145672   -1.250989
C        -1.952339    6.351077   -1.377769
C        -2.640247    6.631464   -2.553544
O        -3.311592    7.829901   -2.674842
C        -4.554258    7.936621   -2.145514
C        -5.076186    9.234979   -2.048802
C        -6.340815    9.431978   -1.519595
C        -7.075044    8.326306   -1.088461
N        -8.407725    8.542210   -0.521027
O        -8.825744    9.683741   -0.474889
O        -9.022415    7.574638   -0.127224
C        -6.568619    7.032948   -1.187148
C        -5.301372    6.832426   -1.721491
C        -2.647638    5.727400   -3.610421
C        -1.975430    4.522304   -3.470256
C         0.497620    0.885761   -1.389904
N         1.139544    0.444973   -0.221484
C         1.512333   -0.921375   -0.048797
C         0.516851   -1.903508   -0.047179
C         0.868766   -3.232315    0.125259
C         2.210514   -3.594958    0.312171
O         2.452931   -4.916018    0.479022
C         3.771130   -5.356666    0.674496
C         3.749511   -6.864558    0.833213
C         5.139418   -7.452522    1.048569
C         5.114025   -8.969245    1.219954
N         6.433568   -9.529086    1.459143
C         6.456931  -10.753380    2.247878
C         6.096578  -11.997743    1.427359
N         6.940600  -12.146987    0.246706
C         6.909764  -10.926907   -0.548567
C         7.260518   -9.672939    0.266671
C         8.275624  -12.662033    0.487859
C         8.276421  -14.066474    1.044409
C         9.541873  -14.623505    1.632029
C         8.375661  -14.312934    2.526916
C         3.200927   -2.607605    0.320738
C         2.842813   -1.271659    0.133235
O         0.374499    0.209299   -2.375824
H        -0.808694    2.235256   -3.077489
H        -4.293101    1.212720   -0.316385
H        -5.314116    2.174368    0.773363
H        -2.702641    2.031185    2.673210
H        -1.759597   -1.305301    2.368533
H        -1.940732    0.063480    3.513077
H        -0.432017   -0.145496    2.579563
H        -4.344826    4.749061    0.024026
H        -3.745122    6.276686    2.567329
H        -5.339755    6.344615    1.761897
H        -3.928009    7.092691    0.979546
H        -0.772999    4.938794   -0.306389
H        -1.969877    7.071536   -0.558743
H        -4.466795   10.073052   -2.389826
H        -6.771208   10.428311   -1.426982
H        -7.153096    6.175612   -0.850286
H        -4.919082    5.805296   -1.787155
H        -3.210256    5.962362   -4.514788
H        -2.015160    3.789361   -4.278083
H        -0.523365   -1.588533   -0.165597
H         0.113042   -4.019428    0.127282
H         4.208670   -4.883455    1.574651
H         4.406106   -5.071419   -0.186688
H         3.282052   -7.302771   -0.064204
H         3.091636   -7.116418    1.681588
H         5.613152   -7.013822    1.942307
H         5.785550   -7.183777    0.195045
H         4.595371   -9.421622    0.346287
H         4.483347   -9.206837    2.092182
H         5.776901  -10.644607    3.107332
H         7.472734  -10.872578    2.667187
H         5.048823  -11.917743    1.086773
H         6.159583  -12.906119    2.043237
H         5.894200  -10.818668   -0.969044
H         7.595032  -11.032839   -1.404989
H         7.167029   -8.772329   -0.359044
H         8.318160   -9.721066    0.581936
H         8.896040  -12.023007    1.158333
H         8.798027  -12.670014   -0.483808
H         7.649892  -14.760460    0.474770
H        10.412323  -13.962614    1.681584
H         9.786036  -15.670522    1.438401
H         8.456220  -13.439036    3.180576
H         7.810611  -15.144033    2.956053
H         4.250900   -2.858682    0.469007
H         3.609596   -0.495322    0.137345
