101
-1 1
C         1.693295    1.149855   -1.370027
O         1.672247    0.351118   -0.219026
C         0.712512    0.768772    0.727321
C         0.887057   -0.029266    2.006716
N         2.141210    0.238421    2.663123
C         2.190369    1.301664    3.622807
C         3.664329    1.667961    3.893637
N         4.522892    1.413344    2.751767
C         4.577143   -0.025095    2.510861
C         3.200135   -0.725742    2.719608
C         4.200317    2.154203    1.534379
C         3.944774    3.640254    1.744850
C         3.576917    4.329321    0.432541
C         2.896311    5.680012    0.621289
O         1.809173    5.632489    1.521971
C         0.694419    4.918660    1.231130
C        -0.116558    4.591131    2.325740
C        -1.309615    3.909106    2.135465
C        -1.695555    3.526053    0.851368
N        -2.913845    2.809672    0.655368
C        -3.970750    3.367688   -0.050217
S        -5.301469    2.184557   -0.166730
C        -4.319524    0.905671    0.564164
C        -4.613291   -0.396656    0.403483
S        -2.151160    0.686798   -2.168170
C        -1.097197   -0.805517   -2.102041
C        -0.547594   -1.322163   -3.452463
H        -1.406777   -1.463954   -4.129770
N         0.162143   -2.573446   -3.296039
C        -0.417522   -3.773390   -3.104317
C         0.544161   -4.940001   -2.968340
O        -1.628209   -3.936973   -3.019573
C         0.456628   -0.360466   -4.106077
N        -0.037352    0.853569   -4.404437
C         0.816827    1.921676   -4.848378
O         1.619157   -0.702195   -4.318532
C        -3.792922   -1.573660    0.729815
C        -3.101402   -1.752396    1.935788
C        -2.228046   -2.823143    2.094221
C        -2.038383   -3.717936    1.043613
O        -1.087749   -4.708271    1.163931
C         0.176316   -4.412832    0.745313
C         0.535447   -3.181929    0.190342
C         1.853059   -2.941321   -0.195002
C         2.797811   -3.942043   -0.032210
F         4.071894   -3.715107   -0.383094
C         2.456009   -5.179876    0.503758
C         1.141296   -5.414338    0.895407
C        -2.765587   -3.603147   -0.136292
C        -3.648723   -2.539098   -0.278882
C        -3.059398    1.491370    1.102524
O        -2.267854    0.966350    1.845438
O        -4.023139    4.483129   -0.484649
C        -0.880549    3.816241   -0.238497
C         0.307788    4.522279   -0.054536
H         2.283452    0.631896   -2.138416
H         2.157312    2.134304   -1.162566
H         0.674250    1.329167   -1.760405
H        -0.308023    0.646910    0.321362
H         0.845791    1.847397    0.949455
H         0.812750   -1.102034    1.774058
H         0.031262    0.204351    2.664426
H         1.681152    1.054340    4.587258
H         1.654306    2.175832    3.210743
H         4.054222    1.060263    4.728313
H         3.745929    2.715182    4.221480
H         5.326919   -0.482440    3.182403
H         4.929103   -0.187151    1.481590
H         3.214284   -1.285038    3.685610
H         3.039866   -1.474769    1.932090
H         3.324358    1.718166    1.019109
H         5.054230    2.035838    0.842396
H         4.820085    4.122980    2.213505
H         3.101788    3.777859    2.438108
H         2.904916    3.665955   -0.132672
H         4.465150    4.475659   -0.204788
H         2.580867    6.098162   -0.351765
H         3.592620    6.401124    1.074693
H         0.209184    4.895422    3.321665
H        -1.943031    3.656863    2.986990
H        -5.508546   -0.612417   -0.190294
H        -1.681608   -1.638449   -1.690826
H        -0.233327   -0.658002   -1.434012
H         1.162455   -2.492802   -3.460085
H         0.158266   -5.784677   -3.554610
H         0.571659   -5.247941   -1.912230
H         1.568159   -4.701069   -3.286796
H        -0.923258    1.086693   -3.909557
H         1.185555    2.534560   -4.005336
H         0.271950    2.583236   -5.538127
H         1.687738    1.497192   -5.364709
H        -3.217755   -1.027600    2.738683
H        -1.651121   -2.946884    3.012542
H        -0.206009   -2.397274    0.043221
H         2.125962   -1.958895   -0.588202
H         3.224367   -5.946701    0.616334
H         0.842623   -6.372129    1.324370
H        -2.573668   -4.277640   -0.972813
H        -4.168898   -2.408680   -1.230503
H        -1.169796    3.449346   -1.226310
H         0.929986    4.742751   -0.922345
