-1 1
 OpenBabel05232414493D

101104  0  0  1  0  0  0  0  0999 V2000
    3.2229   21.8211   -2.0498 C   0  0  0  0  0  0  0  0  0  0  0  0
    3.5869   20.5695   -1.5729 O   0  0  0  0  0  0  0  0  0  0  0  0
    2.5074   19.8593   -1.0081 C   0  0  0  0  0  0  0  0  0  0  0  0
    3.0190   18.5611   -0.4149 C   0  0  0  0  0  0  0  0  0  0  0  0
    3.8783   18.7863    0.7230 N   0  0  0  0  0  0  0  0  0  0  0  0
    3.2233   19.0715    1.9758 C   0  0  0  0  0  0  0  0  0  0  0  0
    4.2925   19.4375    3.0266 C   0  0  0  0  0  0  0  0  0  0  0  0
    5.5002   19.9833    2.4290 N   0  0  0  0  0  0  0  0  0  0  0  0
    6.1340   18.9376    1.6348 C   0  0  0  0  0  0  0  0  0  0  0  0
    5.1064   18.0588    0.8635 C   0  0  0  0  0  0  0  0  0  0  0  0
    5.3205   21.2272    1.6831 C   0  0  0  0  0  0  0  0  0  0  0  0
    4.6889   22.3442    2.5024 C   0  0  0  0  0  0  0  0  0  0  0  0
    4.4424   23.5901    1.6569 C   0  0  0  0  0  0  0  0  0  0  0  0
    3.6335   24.6706    2.3695 C   0  0  0  0  0  0  0  0  0  0  0  0
    2.4664   24.1854    3.0046 O   0  0  0  0  0  0  0  0  0  0  0  0
    1.5656   23.4734    2.2782 C   0  0  0  0  0  0  0  0  0  0  0  0
    0.9014   22.4354    2.9386 C   0  0  0  0  0  0  0  0  0  0  0  0
   -0.0027   21.6319    2.2574 C   0  0  0  0  0  0  0  0  0  0  0  0
   -0.2411   21.8390    0.8962 C   0  0  0  0  0  0  0  0  0  0  0  0
   -1.0585   20.9315    0.1704 N   0  0  0  0  0  0  0  0  0  0  0  0
   -2.0216   21.3674   -0.7259 C   0  0  0  0  0  0  0  0  0  0  0  0
   -2.7050   19.9648   -1.5546 S   0  0  0  0  0  0  0  0  0  0  0  0
   -1.6714   18.8174   -0.6640 C   0  0  1  0  0  3  0  0  0  0  0  0
   -1.6132   17.4954   -1.1247 C   0  0  0  0  0  3  0  0  0  0  0  0
    0.0621   17.5053   -2.8757 S   0  0  0  0  0  1  0  0  0  0  0  0
    0.8282   15.8590   -2.9443 C   0  0  0  0  0  0  0  0  0  0  0  0
    0.3784   14.9690   -4.1252 C   0  0  2  0  0  0  0  0  0  0  0  0
   -0.7174   15.0390   -4.2028 H   0  0  0  0  0  0  0  0  0  0  0  0
    0.7166   13.5783   -3.9270 N   0  0  0  0  0  0  0  0  0  0  0  0
   -0.2102   12.6325   -3.6265 C   0  0  0  0  0  0  0  0  0  0  0  0
    0.3057   11.2081   -3.5783 C   0  0  0  0  0  0  0  0  0  0  0  0
   -1.3757   12.8896   -3.3718 O   0  0  0  0  0  0  0  0  0  0  0  0
    1.0288   15.4138   -5.4434 C   0  0  0  0  0  0  0  0  0  0  0  0
    0.6513   16.6353   -5.8740 N   0  0  0  0  0  0  0  0  0  0  0  0
    1.2788   17.2836   -6.9967 C   0  0  0  0  0  0  0  0  0  0  0  0
    1.8385   14.7002   -6.0217 O   0  0  0  0  0  0  0  0  0  0  0  0
   -1.1829   16.2584   -0.4327 C   0  0  0  0  0  0  0  0  0  0  0  0
   -0.2726   16.2045    0.6349 C   0  0  0  0  0  0  0  0  0  0  0  0
    0.1703   14.9805    1.1300 C   0  0  0  0  0  0  0  0  0  0  0  0
   -0.2950   13.7958    0.5678 C   0  0  0  0  0  0  0  0  0  0  0  0
    0.2095   12.5833    0.9991 O   0  0  0  0  0  0  0  0  0  0  0  0
    1.1622   11.9937    0.2288 C   0  0  0  0  0  0  0  0  0  0  0  0
    1.9258   12.6883   -0.7161 C   0  0  0  0  0  0  0  0  0  0  0  0
    2.9003   12.0181   -1.4520 C   0  0  0  0  0  0  0  0  0  0  0  0
    3.1047   10.6622   -1.2436 C   0  0  0  0  0  0  0  0  0  0  0  0
    4.0319   10.0155   -1.9637 F   0  0  0  0  0  0  0  0  0  0  0  0
    2.3554    9.9569   -0.3091 C   0  0  0  0  0  0  0  0  0  0  0  0
    1.3817   10.6263    0.4266 C   0  0  0  0  0  0  0  0  0  0  0  0
   -1.2357   13.8193   -0.4550 C   0  0  0  0  0  0  0  0  0  0  0  0
   -1.6681   15.0448   -0.9476 C   0  0  0  0  0  0  0  0  0  0  0  0
   -0.8068   19.5240    0.2308 C   0  0  0  0  0  0  0  0  0  0  0  0
    0.0760   19.0989    0.9665 O   0  0  0  0  0  0  0  0  0  0  0  0
   -2.3531   22.5129   -0.9171 O   0  0  0  0  0  0  0  0  0  0  0  0
    0.3899   22.8991    0.2467 C   0  0  0  0  0  0  0  0  0  0  0  0
    1.2797   23.7216    0.9333 C   0  0  0  0  0  0  0  0  0  0  0  0
    4.1096   22.2882   -2.5042 H   0  0  0  0  0  0  0  0  0  0  0  0
    2.8524   22.4825   -1.2405 H   0  0  0  0  0  0  0  0  0  0  0  0
    2.4256   21.7609   -2.8185 H   0  0  0  0  0  0  0  0  0  0  0  0
    1.7435   19.6252   -1.7742 H   0  0  0  0  0  0  0  0  0  0  0  0
    2.0192   20.4685   -0.2236 H   0  0  0  0  0  0  0  0  0  0  0  0
    3.5903   18.0368   -1.1970 H   0  0  0  0  0  0  0  0  0  0  0  0
    2.1431   17.9286   -0.1721 H   0  0  0  0  0  0  0  0  0  0  0  0
    2.6072   18.2163    2.3404 H   0  0  0  0  0  0  0  0  0  0  0  0
    2.5151   19.9033    1.8317 H   0  0  0  0  0  0  0  0  0  0  0  0
    4.5945   18.5374    3.5890 H   0  0  0  0  0  0  0  0  0  0  0  0
    3.8760   20.1295    3.7732 H   0  0  0  0  0  0  0  0  0  0  0  0
    6.7451   18.2940    2.2950 H   0  0  0  0  0  0  0  0  0  0  0  0
    6.8253   19.4174    0.9259 H   0  0  0  0  0  0  0  0  0  0  0  0
    4.9715   17.0841    1.3928 H   0  0  0  0  0  0  0  0  0  0  0  0
    5.4969   17.8154   -0.1354 H   0  0  0  0  0  0  0  0  0  0  0  0
    4.7253   21.0712    0.7618 H   0  0  0  0  0  0  0  0  0  0  0  0
    6.3233   21.5553    1.3545 H   0  0  0  0  0  0  0  0  0  0  0  0
    5.3164   22.5786    3.3798 H   0  0  0  0  0  0  0  0  0  0  0  0
    3.7186   22.0075    2.8953 H   0  0  0  0  0  0  0  0  0  0  0  0
    3.9246   23.2862    0.7329 H   0  0  0  0  0  0  0  0  0  0  0  0
    5.3964   24.0425    1.3353 H   0  0  0  0  0  0  0  0  0  0  0  0
    3.3881   25.4915    1.6698 H   0  0  0  0  0  0  0  0  0  0  0  0
    4.2232   25.1106    3.1875 H   0  0  0  0  0  0  0  0  0  0  0  0
    1.1279   22.2600    3.9917 H   0  0  0  0  0  0  0  0  0  0  0  0
   -0.4918   20.8035    2.7679 H   0  0  0  0  0  0  0  0  0  0  0  0
   -2.3890   17.2733   -1.8608 H   0  0  0  0  0  0  0  0  0  0  0  0
    0.5692   15.3197   -2.0214 H   0  0  0  0  0  0  0  0  0  0  0  0
    1.9267   15.9618   -2.9567 H   0  0  0  0  0  0  0  0  0  0  0  0
    1.5795   13.2923   -4.3791 H   0  0  0  0  0  0  0  0  0  0  0  0
   -0.4110   10.5576   -4.0971 H   0  0  0  0  0  0  0  0  0  0  0  0
    0.3467   10.8920   -2.5246 H   0  0  0  0  0  0  0  0  0  0  0  0
    1.3065   11.0858   -4.0142 H   0  0  0  0  0  0  0  0  0  0  0  0
    0.1255   17.2018   -5.2000 H   0  0  0  0  0  0  0  0  0  0  0  0
    1.9782   18.0721   -6.6722 H   0  0  0  0  0  0  0  0  0  0  0  0
    0.5238   17.7389   -7.6557 H   0  0  0  0  0  0  0  0  0  0  0  0
    1.8410   16.5297   -7.5622 H   0  0  0  0  0  0  0  0  0  0  0  0
    0.1095   17.1387    1.0463 H   0  0  0  0  0  0  0  0  0  0  0  0
    0.9081   14.9384    1.9338 H   0  0  0  0  0  0  0  0  0  0  0  0
    1.7550   13.7506   -0.8903 H   0  0  0  0  0  0  0  0  0  0  0  0
    3.4944   12.5472   -2.1988 H   0  0  0  0  0  0  0  0  0  0  0  0
    2.5352    8.8895   -0.1708 H   0  0  0  0  0  0  0  0  0  0  0  0
    0.7724   10.1013    1.1638 H   0  0  0  0  0  0  0  0  0  0  0  0
   -1.5780   12.8928   -0.9170 H   0  0  0  0  0  0  0  0  0  0  0  0
   -2.3485   15.0461   -1.8021 H   0  0  0  0  0  0  0  0  0  0  0  0
    0.1926   23.0749   -0.8107 H   0  0  0  0  0  0  0  0  0  0  0  0
    1.7707   24.5395    0.4033 H   0  0  0  0  0  0  0  0  0  0  0  0
  1  2  1  0  0  0  0
  1 57  1  0  0  0  0
  2  3  1  0  0  0  0
  3  4  1  0  0  0  0
  3 60  1  0  0  0  0
  4 62  1  0  0  0  0
  4  5  1  0  0  0  0
  5 10  1  0  0  0  0
  5  6  1  0  0  0  0
  6 63  1  0  0  0  0
  6  7  1  0  0  0  0
  7 65  1  0  0  0  0
  7 66  1  0  0  0  0
  8  7  1  0  0  0  0
  9 67  1  0  0  0  0
  9  8  1  0  0  0  0
 10 69  1  0  0  0  0
 10  9  1  0  0  0  0
 11  8  1  0  0  0  0
 11 12  1  0  0  0  0
 12 74  1  0  0  0  0
 12 73  1  0  0  0  0
 13 14  1  0  0  0  0
 13 12  1  0  0  0  0
 14 15  1  0  0  0  0
 14 78  1  0  0  0  0
 16 17  1  0  0  0  0
 16 15  1  0  0  0  0
 17 79  1  0  0  0  0
 18 80  1  0  0  0  0
 18 17  2  0  0  0  0
 19 18  1  0  0  0  0
 20 51  1  0  0  0  0
 20 19  1  0  0  0  0
 21 20  1  0  0  0  0
 22 21  1  0  0  0  0
 22 23  1  0  0  0  0
 23 24  1  6  0  0  0
 23 51  1  0  0  0  0
 24 37  1  0  0  0  0
 26 25  1  0  0  0  0
 26 82  1  0  0  0  0
 27 28  1  6  0  0  0
 27 29  1  0  0  0  0
 27 26  1  0  0  0  0
 29 30  1  0  0  0  0
 30 31  1  0  0  0  0
 30 32  2  0  0  0  0
 31 86  1  0  0  0  0
 33 27  1  0  0  0  0
 34 33  1  0  0  0  0
 34 88  1  0  0  0  0
 35 89  1  0  0  0  0
 35 34  1  0  0  0  0
 36 33  2  0  0  0  0
 37 38  1  0  0  0  0
 38 92  1  0  0  0  0
 38 39  2  0  0  0  0
 39 93  1  0  0  0  0
 40 41  1  0  0  0  0
 40 39  1  0  0  0  0
 42 48  1  0  0  0  0
 42 41  1  0  0  0  0
 43 42  2  0  0  0  0
 44 45  2  0  0  0  0
 44 43  1  0  0  0  0
 45 47  1  0  0  0  0
 46 45  1  0  0  0  0
 47 96  1  0  0  0  0
 47 48  2  0  0  0  0
 48 97  1  0  0  0  0
 49 40  2  0  0  0  0
 50 49  1  0  0  0  0
 50 37  2  0  0  0  0
 51 52  2  0  0  0  0
 53 21  2  0  0  0  0
 54 19  2  0  0  0  0
 54 55  1  0  0  0  0
 55 16  2  0  0  0  0
 56  1  1  0  0  0  0
 58  1  1  0  0  0  0
 59  3  1  0  0  0  0
 61  4  1  0  0  0  0
 64  6  1  0  0  0  0
 68  9  1  0  0  0  0
 70 10  1  0  0  0  0
 71 11  1  0  0  0  0
 72 11  1  0  0  0  0
 75 13  1  0  0  0  0
 76 13  1  0  0  0  0
 77 14  1  0  0  0  0
 81 24  1  0  0  0  0
 83 26  1  0  0  0  0
 84 29  1  0  0  0  0
 85 31  1  0  0  0  0
 87 31  1  0  0  0  0
 90 35  1  0  0  0  0
 91 35  1  0  0  0  0
 94 43  1  0  0  0  0
 95 44  1  0  0  0  0
 98 49  1  0  0  0  0
 99 50  1  0  0  0  0
100 54  1  0  0  0  0
101 55  1  0  0  0  0
M  END
