-1 1
 OpenBabel05192410563D

101105  0  0  1  0  0  0  0  0999 V2000
    1.8895    4.9149   -1.2028 C   0  0  0  0  0  0  0  0  0  0  0  0
    2.4980    3.6850   -0.9868 O   0  0  0  0  0  0  0  0  0  0  0  0
    1.6223    2.7257   -0.4404 C   0  0  0  0  0  0  0  0  0  0  0  0
    2.4140    1.5081   -0.0061 C   0  0  0  0  0  0  0  0  0  0  0  0
    3.2565    1.7978    1.1317 N   0  0  0  0  0  0  0  0  0  0  0  0
    2.6068    1.7469    2.4205 C   0  0  0  0  0  0  0  0  0  0  0  0
    3.6138    2.1784    3.5066 C   0  0  0  0  0  0  0  0  0  0  0  0
    4.6509    3.0579    2.9915 N   0  0  0  0  0  0  0  0  0  0  0  0
    5.4612    2.3083    2.0396 C   0  0  0  0  0  0  0  0  0  0  0  0
    4.6182    1.3472    1.1526 C   0  0  0  0  0  0  0  0  0  0  0  0
    4.1764    4.3301    2.4527 C   0  0  0  0  0  0  0  0  0  0  0  0
    3.3610    5.1442    3.4470 C   0  0  0  0  0  0  0  0  0  0  0  0
    2.8271    6.4302    2.8237 C   0  0  0  0  0  0  0  0  0  0  0  0
    1.7956    7.1485    3.6899 C   0  0  0  0  0  0  0  0  0  0  0  0
    0.7735    6.3029    4.1759 O   0  0  0  0  0  0  0  0  0  0  0  0
    0.0613    5.5545    3.2870 C   0  0  0  0  0  0  0  0  0  0  0  0
   -0.3169    4.2728    3.6947 C   0  0  0  0  0  0  0  0  0  0  0  0
   -1.0188    3.4353    2.8372 C   0  0  0  0  0  0  0  0  0  0  0  0
   -1.3345    3.8563    1.5403 C   0  0  0  0  0  0  0  0  0  0  0  0
   -1.9507    2.9614    0.6321 N   0  0  0  0  0  0  0  0  0  0  0  0
   -2.9456    3.3721   -0.2310 C   0  0  0  0  0  0  0  0  0  0  0  0
   -3.3989    2.0062   -1.2587 S   0  0  0  0  0  0  0  0  0  0  0  0
   -2.2228    0.9285   -0.4815 C   0  0  1  0  0  3  0  0  0  0  0  0
   -1.9775   -0.4156   -1.0554 C   0  0  1  0  0  0  0  0  0  0  0  0
   -0.3039   -0.3659   -1.9587 S   0  0  0  0  0  0  0  0  0  0  0  0
    0.0537   -2.1080   -2.3368 C   0  0  0  0  0  0  0  0  0  0  0  0
   -0.7741   -2.7491   -3.4694 C   0  0  2  0  0  0  0  0  0  0  0  0
   -1.8333   -2.4802   -3.3414 H   0  0  0  0  0  0  0  0  0  0  0  0
   -0.7028   -4.1906   -3.4188 N   0  0  0  0  0  0  0  0  0  0  0  0
   -1.8220   -4.9704   -3.3258 C   0  0  0  0  0  0  0  0  0  0  0  0
   -1.5727   -6.4590   -3.4525 C   0  0  0  0  0  0  0  0  0  0  0  0
   -2.9322   -4.5273   -3.1013 O   0  0  0  0  0  0  0  0  0  0  0  0
   -0.2874   -2.2912   -4.8552 C   0  0  0  0  0  0  0  0  0  0  0  0
   -0.4796   -0.9812   -5.1219 N   0  0  0  0  0  0  0  0  0  0  0  0
    0.0140   -0.3534   -6.3224 C   0  0  0  0  0  0  0  0  0  0  0  0
    0.2469   -3.0770   -5.6231 O   0  0  0  0  0  0  0  0  0  0  0  0
   -2.0058   -1.6360   -0.1626 C   0  0  0  0  0  0  0  0  0  0  0  0
   -1.1828   -1.7569    0.9672 C   0  0  0  0  0  0  0  0  0  0  0  0
   -1.0901   -2.9719    1.6397 C   0  0  0  0  0  0  0  0  0  0  0  0
   -1.8253   -4.0691    1.1938 C   0  0  0  0  0  0  0  0  0  0  0  0
   -1.6697   -5.2893    1.8255 O   0  0  0  0  0  0  0  0  0  0  0  0
   -0.8930   -6.2293    1.2316 C   0  0  0  0  0  0  0  0  0  0  0  0
   -0.1698   -6.0166    0.0519 C   0  0  0  0  0  0  0  0  0  0  0  0
    0.6136   -7.0427   -0.4770 C   0  0  0  0  0  0  0  0  0  0  0  0
    0.6693   -8.2691    0.1675 C   0  0  0  0  0  0  0  0  0  0  0  0
    1.4204   -9.2536   -0.3458 F   0  0  0  0  0  0  0  0  0  0  0  0
   -0.0440   -8.4962    1.3393 C   0  0  0  0  0  0  0  0  0  0  0  0
   -0.8242   -7.4745    1.8687 C   0  0  0  0  0  0  0  0  0  0  0  0
   -2.6927   -3.9527    0.1158 C   0  0  0  0  0  0  0  0  0  0  0  0
   -2.7750   -2.7347   -0.5555 C   0  0  0  0  0  0  0  0  0  0  0  0
   -1.4902    1.5858    0.5023 C   0  0  0  0  0  0  0  0  0  0  0  0
   -0.5474    1.1892    1.2099 O   0  0  0  0  0  0  0  0  0  0  0  0
   -3.4507    4.4738   -0.2920 O   0  0  0  0  0  0  0  0  0  0  0  0
   -0.9859    5.1500    1.1466 C   0  0  0  0  0  0  0  0  0  0  0  0
   -0.3022    5.9988    2.0142 C   0  0  0  0  0  0  0  0  0  0  0  0
    2.6263    5.5869   -1.6680 H   0  0  0  0  0  0  0  0  0  0  0  0
    1.5370    5.3744   -0.2579 H   0  0  0  0  0  0  0  0  0  0  0  0
    1.0118    4.8363   -1.8769 H   0  0  0  0  0  0  0  0  0  0  0  0
    0.8552    2.4279   -1.1832 H   0  0  0  0  0  0  0  0  0  0  0  0
    1.0800    3.1446    0.4267 H   0  0  0  0  0  0  0  0  0  0  0  0
    3.0468    1.1921   -0.8511 H   0  0  0  0  0  0  0  0  0  0  0  0
    1.6925    0.6952    0.1985 H   0  0  0  0  0  0  0  0  0  0  0  0
    2.2042    0.7342    2.6536 H   0  0  0  0  0  0  0  0  0  0  0  0
    1.7310    2.4152    2.4069 H   0  0  0  0  0  0  0  0  0  0  0  0
    4.1251    1.2930    3.9221 H   0  0  0  0  0  0  0  0  0  0  0  0
    3.0892    2.6444    4.3534 H   0  0  0  0  0  0  0  0  0  0  0  0
    6.2266    1.7259    2.5862 H   0  0  0  0  0  0  0  0  0  0  0  0
    5.9996    3.0291    1.4060 H   0  0  0  0  0  0  0  0  0  0  0  0
    4.7206    0.2998    1.5294 H   0  0  0  0  0  0  0  0  0  0  0  0
    5.0118    1.3455    0.1255 H   0  0  0  0  0  0  0  0  0  0  0  0
    3.5840    4.1864    1.5271 H   0  0  0  0  0  0  0  0  0  0  0  0
    5.0693    4.9141    2.1645 H   0  0  0  0  0  0  0  0  0  0  0  0
    3.9621    5.3603    4.3473 H   0  0  0  0  0  0  0  0  0  0  0  0
    2.4980    4.5522    3.7835 H   0  0  0  0  0  0  0  0  0  0  0  0
    2.3794    6.1852    1.8470 H   0  0  0  0  0  0  0  0  0  0  0  0
    3.6472    7.1387    2.6145 H   0  0  0  0  0  0  0  0  0  0  0  0
    1.3690    8.0098    3.1418 H   0  0  0  0  0  0  0  0  0  0  0  0
    2.2730    7.5493    4.5970 H   0  0  0  0  0  0  0  0  0  0  0  0
   -0.0347    3.9406    4.6958 H   0  0  0  0  0  0  0  0  0  0  0  0
   -1.2801    2.4253    3.1469 H   0  0  0  0  0  0  0  0  0  0  0  0
   -2.7197   -0.5832   -1.8487 H   0  0  0  0  0  0  0  0  0  0  0  0
   -0.0954   -2.6982   -1.4219 H   0  0  0  0  0  0  0  0  0  0  0  0
    1.1280   -2.1493   -2.5779 H   0  0  0  0  0  0  0  0  0  0  0  0
    0.0868   -4.5787   -3.9249 H   0  0  0  0  0  0  0  0  0  0  0  0
   -2.4277   -6.9174   -3.9647 H   0  0  0  0  0  0  0  0  0  0  0  0
   -1.5109   -6.8872   -2.4404 H   0  0  0  0  0  0  0  0  0  0  0  0
   -0.6437   -6.6998   -3.9880 H   0  0  0  0  0  0  0  0  0  0  0  0
   -0.7718   -0.3926   -4.3408 H   0  0  0  0  0  0  0  0  0  0  0  0
    0.8967    0.2750   -6.1199 H   0  0  0  0  0  0  0  0  0  0  0  0
   -0.7644    0.2759   -6.7791 H   0  0  0  0  0  0  0  0  0  0  0  0
    0.3004   -1.1413   -7.0299 H   0  0  0  0  0  0  0  0  0  0  0  0
   -0.6066   -0.8821    1.2838 H   0  0  0  0  0  0  0  0  0  0  0  0
   -0.4283   -3.0890    2.5002 H   0  0  0  0  0  0  0  0  0  0  0  0
   -0.2208   -5.0581   -0.4662 H   0  0  0  0  0  0  0  0  0  0  0  0
    1.1822   -6.8898   -1.3959 H   0  0  0  0  0  0  0  0  0  0  0  0
    0.0176   -9.4710    1.8260 H   0  0  0  0  0  0  0  0  0  0  0  0
   -1.3953   -7.6203    2.7869 H   0  0  0  0  0  0  0  0  0  0  0  0
   -3.2576   -4.8178   -0.2358 H   0  0  0  0  0  0  0  0  0  0  0  0
   -3.4108   -2.6761   -1.4411 H   0  0  0  0  0  0  0  0  0  0  0  0
   -1.2507    5.4945    0.1478 H   0  0  0  0  0  0  0  0  0  0  0  0
   -0.0350    7.0030    1.6798 H   0  0  0  0  0  0  0  0  0  0  0  0
  1  2  1  0  0  0  0
  1 57  1  0  0  0  0
  2  3  1  0  0  0  0
  3  4  1  0  0  0  0
  3 60  1  0  0  0  0
  4 62  1  0  0  0  0
  4  5  1  0  0  0  0
  5 10  1  0  0  0  0
  5  6  1  0  0  0  0
  6 63  1  0  0  0  0
  6  7  1  0  0  0  0
  7 65  1  0  0  0  0
  7 66  1  0  0  0  0
  8  7  1  0  0  0  0
  9 67  1  0  0  0  0
  9  8  1  0  0  0  0
 10 69  1  0  0  0  0
 10  9  1  0  0  0  0
 11  8  1  0  0  0  0
 11 12  1  0  0  0  0
 12 74  1  0  0  0  0
 12 73  1  0  0  0  0
 13 12  1  0  0  0  0
 13 14  1  0  0  0  0
 14 15  1  0  0  0  0
 14 78  1  0  0  0  0
 16 17  1  0  0  0  0
 16 15  1  0  0  0  0
 17 79  1  0  0  0  0
 18 80  1  0  0  0  0
 18 17  2  0  0  0  0
 19 18  1  0  0  0  0
 20 19  1  0  0  0  0
 21 20  1  0  0  0  0
 22 23  1  0  0  0  0
 22 21  1  0  0  0  0
 23 24  1  6  0  0  0
 23 51  1  0  0  0  0
 24 81  1  6  0  0  0
 24 37  1  0  0  0  0
 25 24  1  0  0  0  0
 26 25  1  0  0  0  0
 26 82  1  0  0  0  0
 27 29  1  0  0  0  0
 27 28  1  1  0  0  0
 27 26  1  0  0  0  0
 29 30  1  0  0  0  0
 30 32  2  0  0  0  0
 31 30  1  0  0  0  0
 31 86  1  0  0  0  0
 33 27  1  0  0  0  0
 34 33  1  0  0  0  0
 34 88  1  0  0  0  0
 35 89  1  0  0  0  0
 35 34  1  0  0  0  0
 36 33  2  0  0  0  0
 37 38  1  0  0  0  0
 38 92  1  0  0  0  0
 38 39  2  0  0  0  0
 39 93  1  0  0  0  0
 40 39  1  0  0  0  0
 40 41  1  0  0  0  0
 42 41  1  0  0  0  0
 42 48  1  0  0  0  0
 43 42  2  0  0  0  0
 44 43  1  0  0  0  0
 44 45  2  0  0  0  0
 45 47  1  0  0  0  0
 46 45  1  0  0  0  0
 47 96  1  0  0  0  0
 47 48  2  0  0  0  0
 48 97  1  0  0  0  0
 49 40  2  0  0  0  0
 50 37  2  0  0  0  0
 50 49  1  0  0  0  0
 51 20  1  0  0  0  0
 51 52  2  0  0  0  0
 53 21  2  0  0  0  0
 54 19  2  0  0  0  0
 54 55  1  0  0  0  0
 55 16  2  0  0  0  0
 56  1  1  0  0  0  0
 58  1  1  0  0  0  0
 59  3  1  0  0  0  0
 61  4  1  0  0  0  0
 64  6  1  0  0  0  0
 68  9  1  0  0  0  0
 70 10  1  0  0  0  0
 71 11  1  0  0  0  0
 72 11  1  0  0  0  0
 75 13  1  0  0  0  0
 76 13  1  0  0  0  0
 77 14  1  0  0  0  0
 83 26  1  0  0  0  0
 84 29  1  0  0  0  0
 85 31  1  0  0  0  0
 87 31  1  0  0  0  0
 90 35  1  0  0  0  0
 91 35  1  0  0  0  0
 94 43  1  0  0  0  0
 95 44  1  0  0  0  0
 98 49  1  0  0  0  0
 99 50  1  0  0  0  0
100 54  1  0  0  0  0
101 55  1  0  0  0  0
M  END
