99
-1 1
C        11.636823   19.094171    8.293103
S        11.194442   20.681711    7.640051
O        10.134793   20.493223    6.645246
N        10.582354   21.465807    8.994702
C         9.228247   21.068384    9.386909
C         8.997620   21.547595   10.812100
N         9.197552   22.978578   10.984311
C        10.514053   23.368591   10.511212
C        10.811927   22.906689    9.081139
C         8.108907   23.836019   10.548532
C         7.931945   25.074922   11.430530
C         7.723354   24.737183   12.912309
C         9.018628   24.771096   13.719407
O         8.858496   24.256933   15.022763
C         8.859642   22.914699   15.210347
C         8.612990   22.465986   16.512886
C         8.614153   21.108953   16.800839
C         8.877150   20.170213   15.796603
N         8.918193   18.778752   16.107726
C         9.574411   18.318139   17.243138
S         9.477645   16.545631   17.328764
C         8.594517   16.457736   15.802631
C         8.249980   15.332333   15.101946
S        10.372529   14.692831   13.658272
C        11.053416   16.365008   13.738490
C        11.150252   17.174814   12.431704
H        11.778506   16.623343   11.715532
N        11.823745   18.430745   12.684216
C        12.666543   18.987942   11.777546
C        12.912659   20.472205   11.934558
O        13.178002   18.355834   10.867026
C         9.821812   17.493334   11.707403
N         8.929562   16.502140   11.628115
C         7.607027   16.728638   11.104549
O         9.635720   18.602625   11.205730
C         8.112329   13.963747   15.634409
C         7.031085   13.185327   15.199828
C         6.815602   11.902034   15.696951
C         7.696745   11.386294   16.638848
O         7.506653   10.100118   17.117182
C         6.791771    9.903174   18.238629
C         6.652692    8.569936   18.658038
C         5.929963    8.271255   19.799795
C         5.344899    9.310568   20.523880
N         4.577895    8.997699   21.730865
O         4.485255    7.831161   22.054976
O         4.077152    9.920501   22.339176
C         5.474869   10.636495   20.122326
C         6.199773   10.938790   18.976412
C         8.793319   12.126559   17.073207
C         8.999019   13.404711   16.568395
C         8.341635   17.788048   15.265416
O         7.729594   18.062947   14.253079
O        10.133287   18.990043   18.071068
C         9.107466   20.614640   14.494723
C         9.093774   21.977606   14.199174
O        12.403564   21.406915    7.247935
H        10.789445   18.686137    8.858563
H        12.502494   19.198046    8.958533
H        11.868257   18.465459    7.424994
H         9.139885   19.975389    9.385060
H         8.481266   21.488361    8.686242
H         9.705694   20.999150   11.452325
H         7.989166   21.268710   11.149758
H        11.269669   22.935596   11.188200
H        10.619471   24.463221   10.568955
H        11.857040   23.118092    8.821406
H        10.169578   23.452654    8.361616
H         7.179694   23.246363   10.601704
H         8.206186   24.150766    9.488441
H         7.069445   25.640058   11.042325
H         8.799322   25.750181   11.314780
H         7.276031   23.733608   12.999702
H         7.010900   25.435740   13.378452
H         9.348061   25.812976   13.853964
H         9.819624   24.238745   13.181717
H         8.421643   23.203983   17.293636
H         8.430010   20.773663   17.820606
H         7.667865   15.549006   14.203679
H        12.070425   16.325351   14.154892
H        10.452439   16.945122   14.468315
H        11.356143   19.062749   13.322867
H        12.586259   20.877022   12.902988
H        12.344565   20.967432   11.130797
H        13.977829   20.684484   11.776823
H         9.150716   15.643277   12.157890
H         7.026152   17.381984   11.776099
H         7.091885   15.763287   11.007709
H         7.655306   17.204091   10.113427
H         6.342847   13.595278   14.457114
H         5.972435   11.296923   15.358957
H         7.125539    7.786760   18.064254
H         5.808181    7.245052   20.144698
H         5.005092   11.421753   20.713924
H         6.309100   11.974269   18.653211
H         9.488200   11.687540   17.791275
H         9.891201   13.958255   16.863308
H         9.255257   19.898333   13.683871
H         9.246886   22.301867   13.169856
