-1 1
 OpenBabel05232414493D

 59 61  0  0  1  0  0  0  0  0999 V2000
    6.2245    1.1254    5.3329 O   0  0  0  0  0  0  0  0  0  0  0  0
    7.3817    0.9105    5.6707 C   0  0  0  0  0  0  0  0  0  0  0  0
    8.4649    1.2454    4.8540 N   0  0  0  0  0  0  0  0  0  0  0  0
    7.8660    0.2895    6.8854 C   0  0  1  0  0  3  0  0  0  0  0  0
    7.0320   -0.2986    7.8054 C   0  0  0  0  0  3  0  0  0  0  0  0
    6.7629   -2.7765    7.0366 S   0  0  0  0  0  1  0  0  0  0  0  0
    7.1305   -2.3758    5.3146 C   0  0  0  0  0  0  0  0  0  0  0  0
    5.8933   -2.0391    4.4708 C   0  0  2  0  0  0  0  0  0  0  0  0
    5.4057   -1.1501    4.9052 H   0  0  0  0  0  0  0  0  0  0  0  0
    4.9809   -3.1554    4.4893 N   0  0  0  0  0  0  0  0  0  0  0  0
    3.8073   -3.1302    3.8196 C   0  0  0  0  0  0  0  0  0  0  0  0
    2.9263   -4.3529    4.0112 C   0  0  0  0  0  0  0  0  0  0  0  0
    3.4856   -2.2183    3.0760 O   0  0  0  0  0  0  0  0  0  0  0  0
    6.3300   -1.7142    3.0364 C   0  0  0  0  0  0  0  0  0  0  0  0
    6.3931   -0.3790    2.7782 N   0  0  0  0  0  0  0  0  0  0  0  0
    6.7025    0.1224    1.4678 C   0  0  0  0  0  0  0  0  0  0  0  0
    6.6658   -2.5691    2.2385 O   0  0  0  0  0  0  0  0  0  0  0  0
    7.4627   -0.6576    9.1657 C   0  0  0  0  0  0  0  0  0  0  0  0
    7.0497   -0.1335   10.3678 C   0  0  0  0  0  0  0  0  0  0  0  0
    8.4763   -1.5622    9.3810 N   0  0  0  0  0  0  0  0  0  0  0  0
    8.6896   -2.2540    8.6628 H   0  0  0  0  0  0  0  0  0  0  0  0
    8.7064   -1.6729   10.7285 C   0  0  0  0  0  0  0  0  0  0  0  0
    7.8390   -0.7621   11.3898 C   0  0  0  0  0  0  0  0  0  0  0  0
    7.8993   -0.6620   12.7902 C   0  0  0  0  0  0  0  0  0  0  0  0
    8.7890   -1.4666   13.4883 C   0  0  0  0  0  0  0  0  0  0  0  0
    9.6273   -2.3772   12.8143 C   0  0  0  0  0  0  0  0  0  0  0  0
    9.5973   -2.4915   11.4310 C   0  0  0  0  0  0  0  0  0  0  0  0
    9.6436    0.2240    6.9012 S   0  0  0  0  0  0  0  0  0  0  0  0
    9.7328    0.9236    5.2834 C   0  0  0  0  0  0  0  0  0  0  0  0
   10.8414    1.0843    4.6740 N   0  0  0  0  0  0  0  0  0  0  0  0
   10.8608    1.5121    3.3420 C   0  0  0  0  0  0  0  0  0  0  0  0
   10.1883    0.8149    2.3251 C   0  0  0  0  0  0  0  0  0  0  0  0
   10.2611    1.2350    0.9979 C   0  0  0  0  0  0  0  0  0  0  0  0
   11.0115    2.3598    0.6516 C   0  0  0  0  0  0  0  0  0  0  0  0
   11.1126    2.8094   -0.6274 O   0  0  0  0  0  0  0  0  0  0  0  0
   11.6956    3.0554    1.6526 C   0  0  0  0  0  0  0  0  0  0  0  0
   11.6246    2.6316    2.9746 C   0  0  0  0  0  0  0  0  0  0  0  0
    8.3039    1.6376    3.9339 H   0  0  0  0  0  0  0  0  0  0  0  0
    5.9703   -0.0862    7.6685 H   0  0  0  0  0  0  0  0  0  0  0  0
    7.6705   -3.2072    4.8343 H   0  0  0  0  0  0  0  0  0  0  0  0
    7.8088   -1.5055    5.2860 H   0  0  0  0  0  0  0  0  0  0  0  0
    5.1266   -3.8138    5.2486 H   0  0  0  0  0  0  0  0  0  0  0  0
    1.8762   -4.0339    4.0054 H   0  0  0  0  0  0  0  0  0  0  0  0
    3.1434   -4.9009    4.9390 H   0  0  0  0  0  0  0  0  0  0  0  0
    3.0794   -5.0325    3.1593 H   0  0  0  0  0  0  0  0  0  0  0  0
    6.0199    0.2563    3.4811 H   0  0  0  0  0  0  0  0  0  0  0  0
    7.2902   -0.6389    0.9362 H   0  0  0  0  0  0  0  0  0  0  0  0
    7.2921    1.0505    1.5308 H   0  0  0  0  0  0  0  0  0  0  0  0
    5.7937    0.3245    0.8739 H   0  0  0  0  0  0  0  0  0  0  0  0
    6.2903    0.6340   10.4967 H   0  0  0  0  0  0  0  0  0  0  0  0
    7.2487    0.0377   13.3210 H   0  0  0  0  0  0  0  0  0  0  0  0
    8.8413   -1.3976   14.5777 H   0  0  0  0  0  0  0  0  0  0  0  0
   10.3145   -3.0021   13.3899 H   0  0  0  0  0  0  0  0  0  0  0  0
   10.2480   -3.1925   10.9043 H   0  0  0  0  0  0  0  0  0  0  0  0
    9.6074   -0.0770    2.5746 H   0  0  0  0  0  0  0  0  0  0  0  0
    9.7267    0.6709    0.2269 H   0  0  0  0  0  0  0  0  0  0  0  0
   10.5965    2.2354   -1.2000 H   0  0  0  0  0  0  0  0  0  0  0  0
   12.2859    3.9307    1.3741 H   0  0  0  0  0  0  0  0  0  0  0  0
   12.1662    3.1681    3.7561 H   0  0  0  0  0  0  0  0  0  0  0  0
  1  2  2  0  0  0  0
  2  4  1  0  0  0  0
  3 29  1  0  0  0  0
  3  2  1  0  0  0  0
  4 28  1  0  0  0  0
  4  5  1  6  0  0  0
  5 18  1  0  0  0  0
  7  6  1  0  0  0  0
  8 10  1  0  0  0  0
  8  9  1  1  0  0  0
  8  7  1  0  0  0  0
 10 42  1  0  0  0  0
 11 12  1  0  0  0  0
 11 10  1  0  0  0  0
 12 44  1  0  0  0  0
 13 11  2  0  0  0  0
 14  8  1  0  0  0  0
 15 14  1  0  0  0  0
 15 46  1  0  0  0  0
 16 48  1  0  0  0  0
 16 15  1  0  0  0  0
 17 14  2  0  0  0  0
 18 20  1  0  0  0  0
 18 19  2  0  0  0  0
 19 50  1  0  0  0  0
 19 23  1  0  0  0  0
 20 22  1  0  0  0  0
 21 20  1  0  0  0  0
 22 23  2  0  0  0  0
 22 27  1  0  0  0  0
 23 24  1  0  0  0  0
 24 51  1  0  0  0  0
 24 25  2  0  0  0  0
 25 52  1  0  0  0  0
 26 53  1  0  0  0  0
 26 25  1  0  0  0  0
 27 26  2  0  0  0  0
 29 28  1  0  0  0  0
 30 29  2  0  0  0  0
 31 30  1  0  0  0  0
 32 55  1  0  0  0  0
 32 31  2  0  0  0  0
 33 32  1  0  0  0  0
 34 33  2  0  0  0  0
 34 36  1  0  0  0  0
 35 34  1  0  0  0  0
 36 37  2  0  0  0  0
 37 31  1  0  0  0  0
 37 59  1  0  0  0  0
 38  3  1  0  0  0  0
 39  5  1  0  0  0  0
 40  7  1  0  0  0  0
 41  7  1  0  0  0  0
 43 12  1  0  0  0  0
 45 12  1  0  0  0  0
 47 16  1  0  0  0  0
 49 16  1  0  0  0  0
 54 27  1  0  0  0  0
 56 33  1  0  0  0  0
 57 35  1  0  0  0  0
 58 36  1  0  0  0  0
M  END
