101
-1 1
C        -5.383877    2.830596   -1.438999
O        -4.930505    4.075901   -0.995283
C        -3.536479    4.145241   -0.905362
C        -3.158065    5.508711   -0.361113
N        -1.725061    5.708704   -0.261143
C        -1.112880    4.922306    0.804716
C         0.389331    5.186633    0.900344
N         0.728713    6.599491    1.035556
C         0.104803    7.336132   -0.047710
C        -1.403983    7.119371   -0.134601
C         0.485582    7.138357    2.364558
C         1.584321    6.749431    3.358240
C         1.096818    6.751436    4.805616
C         2.039803    6.075246    5.802055
O         2.568955    4.837718    5.370542
C         1.731524    3.910163    4.826267
C         0.428574    3.680530    5.267296
C        -0.397930    2.791297    4.579539
C         0.061086    2.127796    3.439128
N        -0.819255    1.344679    2.646182
C        -2.101777    1.779980    2.374528
S        -2.824890    0.717638    1.159580
C        -1.346215   -0.253827    1.007457
C        -1.156930   -1.101310   -0.184789
S         0.244419   -0.467555   -1.363613
C         0.072192    1.327556   -1.218795
C        -0.915416    2.013147   -2.178936
H        -1.035497    3.048374   -1.811506
N        -2.234584    1.413555   -2.121052
C        -2.805467    0.388348   -2.820466
C        -2.256425    0.010858   -4.178207
O        -3.777087   -0.191852   -2.357164
C        -0.436859    2.245132   -3.620290
N         0.617538    1.497177   -4.034774
C         1.092627    1.564506   -5.392883
O        -0.970777    3.084525   -4.321887
C        -0.827145   -2.567283   -0.009787
C         0.140101   -3.008254    0.904240
C         0.428007   -4.364587    1.021510
C        -0.243545   -5.285222    0.219873
O         0.031553   -6.636435    0.349669
C         1.025116   -7.182766   -0.384280
C         1.252824   -8.553264   -0.204199
C         2.251845   -9.200658   -0.919502
C         3.030829   -8.475899   -1.821754
Br         4.398687   -9.358217   -2.803356
C         2.814254   -7.114114   -2.007572
C         1.811699   -6.463281   -1.290696
C        -1.206863   -4.870466   -0.691550
C        -1.492676   -3.509717   -0.800813
C        -0.356269    0.180568    1.894610
O         0.799092   -0.232011    2.049796
O        -2.678290    2.726972    2.871108
C         1.395406    2.306350    3.045416
C         2.219095    3.180619    3.739190
H        -5.077619    2.010928   -0.762065
H        -5.000474    2.585739   -2.448027
H        -6.481748    2.864296   -1.475395
H        -3.067303    3.998058   -1.898779
H        -3.160563    3.348678   -0.233206
H        -3.665649    5.652646    0.618652
H        -3.569237    6.265666   -1.047878
H        -1.263039    3.849729    0.609133
H        -1.605809    5.113126    1.783288
H         0.878093    4.804201   -0.012509
H         0.799360    4.617223    1.746095
H         0.556658    6.999890   -0.997234
H         0.324914    8.410435    0.060901
H        -1.801642    7.654192   -1.012750
H        -1.894984    7.568404    0.762090
H        -0.493744    6.815173    2.777133
H         0.424232    8.236667    2.284435
H         2.461500    7.405100    3.231399
H         1.930167    5.739091    3.103648
H         0.115506    6.252575    4.838158
H         0.921193    7.781227    5.163002
H         1.529255    5.964095    6.777908
H         2.927036    6.703452    5.974420
H         0.036110    4.212277    6.136305
H        -1.426376    2.650736    4.906513
H        -2.069233   -1.048013   -0.791977
H         1.073586    1.773683   -1.311003
H        -0.257747    1.515315   -0.184818
H        -2.680170    1.520568   -1.210107
H        -2.942210   -0.725042   -4.612596
H        -1.261559   -0.441698   -4.069264
H        -2.179332    0.887110   -4.836306
H         0.868802    0.688424   -3.474540
H         2.167122    1.336861   -5.430380
H         0.921131    2.578808   -5.774663
H         0.557780    0.859098   -6.053428
H         0.657853   -2.260716    1.513613
H         1.177272   -4.720477    1.731719
H         0.629194   -9.095777    0.507985
H         2.424573  -10.268357   -0.775095
H         3.426448   -6.549486   -2.712591
H         1.643847   -5.395341   -1.435516
H        -1.723920   -5.611641   -1.304006
H        -2.251830   -3.170494   -1.511318
H         1.773393    1.758242    2.185133
H         3.246286    3.355711    3.413669
