-1 1
 OpenBabel05232413493D

101104  0  0  1  0  0  0  0  0999 V2000
   -5.0254    2.8865   -2.0806 C   0  0  0  0  0  0  0  0  0  0  0  0
   -4.5368    4.0008   -1.3912 O   0  0  0  0  0  0  0  0  0  0  0  0
   -3.1452    3.9965   -1.2485 C   0  0  0  0  0  0  0  0  0  0  0  0
   -2.7058    5.3237   -0.6540 C   0  0  0  0  0  0  0  0  0  0  0  0
   -1.2634    5.4382   -0.5595 N   0  0  0  0  0  0  0  0  0  0  0  0
   -0.6904    4.6130    0.4955 C   0  0  0  0  0  0  0  0  0  0  0  0
    0.8310    4.7117    0.4961 C   0  0  0  0  0  0  0  0  0  0  0  0
    1.3154    6.0832    0.6297 N   0  0  0  0  0  0  0  0  0  0  0  0
    0.7057    6.8941   -0.4108 C   0  0  0  0  0  0  0  0  0  0  0  0
   -0.8228    6.8149   -0.4367 C   0  0  0  0  0  0  0  0  0  0  0  0
    1.1875    6.6276    1.9700 C   0  0  0  0  0  0  0  0  0  0  0  0
    2.2106    6.0416    2.9444 C   0  0  0  0  0  0  0  0  0  0  0  0
    1.8115    6.2567    4.4043 C   0  0  0  0  0  0  0  0  0  0  0  0
    2.4603    5.2823    5.3901 C   0  0  0  0  0  0  0  0  0  0  0  0
    2.4934    3.9398    4.9526 O   0  0  0  0  0  0  0  0  0  0  0  0
    1.3605    3.3255    4.5273 C   0  0  0  0  0  0  0  0  0  0  0  0
    0.0739    3.6629    4.9555 C   0  0  0  0  0  0  0  0  0  0  0  0
   -1.0325    3.0127    4.4083 C   0  0  0  0  0  0  0  0  0  0  0  0
   -0.8581    2.0298    3.4396 C   0  0  0  0  0  0  0  0  0  0  0  0
   -1.9814    1.4281    2.7940 N   0  0  0  0  0  0  0  0  0  0  0  0
   -2.9789    2.1940    2.2092 C   0  0  0  0  0  0  0  0  0  0  0  0
   -4.0847    1.1466    1.2938 S   0  0  0  0  0  0  0  0  0  0  0  0
   -3.1212   -0.3077    1.6500 C   0  0  0  0  0  0  0  0  0  0  0  0
   -3.3073   -1.4248    0.9149 C   0  0  0  0  0  0  0  0  0  0  0  0
    0.4612   -0.5713    0.0729 S   0  0  0  0  0  1  0  0  0  0  0  0
   -0.0312    1.1231   -0.3927 C   0  0  0  0  0  0  0  0  0  0  0  0
   -0.7014    1.3439   -1.7570 C   0  0  2  0  0  0  0  0  0  0  0  0
   -0.8528    2.4343   -1.8518 H   0  0  0  0  0  0  0  0  0  0  0  0
   -2.0376    0.7736   -1.8296 N   0  0  0  0  0  0  0  0  0  0  0  0
   -2.5150   -0.4143   -2.2756 C   0  0  0  0  0  0  0  0  0  0  0  0
   -1.5875   -1.3385   -3.0244 C   0  0  0  0  0  0  0  0  0  0  0  0
   -3.6943   -0.7071   -2.0785 O   0  0  0  0  0  0  0  0  0  0  0  0
    0.1356    1.0446   -3.0144 C   0  0  0  0  0  0  0  0  0  0  0  0
    1.2715    0.3508   -2.8038 N   0  0  0  0  0  0  0  0  0  0  0  0
    2.1158   -0.0503   -3.8966 C   0  0  0  0  0  0  0  0  0  0  0  0
   -0.2208    1.4602   -4.1073 O   0  0  0  0  0  0  0  0  0  0  0  0
   -2.5321   -2.6552    0.7607 C   0  0  0  0  0  0  0  0  0  0  0  0
   -1.5370   -3.1209    1.6354 C   0  0  0  0  0  0  0  0  0  0  0  0
   -0.7006   -4.1637    1.2562 C   0  0  0  0  0  0  0  0  0  0  0  0
   -0.8455   -4.7414   -0.0006 C   0  0  0  0  0  0  0  0  0  0  0  0
    0.0711   -5.6728   -0.4365 O   0  0  0  0  0  0  0  0  0  0  0  0
    1.1174   -5.2090   -1.1763 C   0  0  0  0  0  0  0  0  0  0  0  0
    1.9308   -6.1721   -1.7820 C   0  0  0  0  0  0  0  0  0  0  0  0
    3.0219   -5.7826   -2.5514 C   0  0  0  0  0  0  0  0  0  0  0  0
    3.2979   -4.4250   -2.7107 C   0  0  0  0  0  0  0  0  0  0  0  0
    4.7838   -3.8860   -3.7686 Br  0  0  0  0  0  0  0  0  0  0  0  0
    2.4975   -3.4623   -2.1039 C   0  0  0  0  0  0  0  0  0  0  0  0
    1.4010   -3.8488   -1.3373 C   0  0  0  0  0  0  0  0  0  0  0  0
   -1.8820   -4.3604   -0.8476 C   0  0  0  0  0  0  0  0  0  0  0  0
   -2.7256   -3.3297   -0.4592 C   0  0  0  0  0  0  0  0  0  0  0  0
   -2.0950    0.0249    2.6703 C   0  0  0  0  0  0  0  0  0  0  0  0
   -1.4554   -0.7286    3.3575 O   0  0  0  0  0  0  0  0  0  0  0  0
   -3.1102    3.3863    2.2980 O   0  0  0  0  0  0  0  0  0  0  0  0
    0.4294    1.6503    3.0448 C   0  0  0  0  0  0  0  0  0  0  0  0
    1.5274    2.2957    3.5928 C   0  0  0  0  0  0  0  0  0  0  0  0
   -4.8225    1.9364   -1.5523 H   0  0  0  0  0  0  0  0  0  0  0  0
   -4.5830    2.8050   -3.0924 H   0  0  0  0  0  0  0  0  0  0  0  0
   -6.1139    3.0027   -2.1773 H   0  0  0  0  0  0  0  0  0  0  0  0
   -2.6447    3.8490   -2.2267 H   0  0  0  0  0  0  0  0  0  0  0  0
   -2.8336    3.1639   -0.5881 H   0  0  0  0  0  0  0  0  0  0  0  0
   -3.2036    5.4578    0.3303 H   0  0  0  0  0  0  0  0  0  0  0  0
   -3.0784    6.1196   -1.3185 H   0  0  0  0  0  0  0  0  0  0  0  0
   -0.9689    3.5635    0.3390 H   0  0  0  0  0  0  0  0  0  0  0  0
   -1.1015    4.8876    1.4914 H   0  0  0  0  0  0  0  0  0  0  0  0
    1.2143    4.3032   -0.4540 H   0  0  0  0  0  0  0  0  0  0  0  0
    1.2330    4.0805    1.3011 H   0  0  0  0  0  0  0  0  0  0  0  0
    1.0819    6.5388   -1.3856 H   0  0  0  0  0  0  0  0  0  0  0  0
    1.0251    7.9424   -0.2940 H   0  0  0  0  0  0  0  0  0  0  0  0
   -1.2010    7.3919   -1.2967 H   0  0  0  0  0  0  0  0  0  0  0  0
   -1.2390    7.2974    0.4803 H   0  0  0  0  0  0  0  0  0  0  0  0
    0.1738    6.4705    2.3984 H   0  0  0  0  0  0  0  0  0  0  0  0
    1.3177    7.7216    1.9084 H   0  0  0  0  0  0  0  0  0  0  0  0
    3.2115    6.4520    2.7352 H   0  0  0  0  0  0  0  0  0  0  0  0
    2.2878    4.9621    2.7585 H   0  0  0  0  0  0  0  0  0  0  0  0
    0.7164    6.1730    4.4788 H   0  0  0  0  0  0  0  0  0  0  0  0
    2.0552    7.2793    4.7397 H   0  0  0  0  0  0  0  0  0  0  0  0
    1.9649    5.3595    6.3766 H   0  0  0  0  0  0  0  0  0  0  0  0
    3.5192    5.5391    5.5406 H   0  0  0  0  0  0  0  0  0  0  0  0
   -0.0806    4.4366    5.7084 H   0  0  0  0  0  0  0  0  0  0  0  0
   -2.0373    3.2961    4.7215 H   0  0  0  0  0  0  0  0  0  0  0  0
   -4.0921   -1.3303    0.1573 H   0  0  0  0  0  0  0  0  0  0  0  0
    0.8377    1.8027   -0.3454 H   0  0  0  0  0  0  0  0  0  0  0  0
   -0.7495    1.5049    0.3546 H   0  0  0  0  0  0  0  0  0  0  0  0
   -2.7340    1.2677   -1.2812 H   0  0  0  0  0  0  0  0  0  0  0  0
   -2.1452   -2.2447   -3.2853 H   0  0  0  0  0  0  0  0  0  0  0  0
   -0.7268   -1.5917   -2.3874 H   0  0  0  0  0  0  0  0  0  0  0  0
   -1.2241   -0.8541   -3.9417 H   0  0  0  0  0  0  0  0  0  0  0  0
    1.3605   -0.1167   -1.8840 H   0  0  0  0  0  0  0  0  0  0  0  0
    3.1586   -0.1358   -3.5575 H   0  0  0  0  0  0  0  0  0  0  0  0
    2.0538    0.6984   -4.6976 H   0  0  0  0  0  0  0  0  0  0  0  0
    1.8097   -1.0237   -4.3220 H   0  0  0  0  0  0  0  0  0  0  0  0
   -1.3815   -2.6198    2.5878 H   0  0  0  0  0  0  0  0  0  0  0  0
    0.1154   -4.4891    1.9032 H   0  0  0  0  0  0  0  0  0  0  0  0
    1.6903   -7.2272   -1.6418 H   0  0  0  0  0  0  0  0  0  0  0  0
    3.6536   -6.5345   -3.0273 H   0  0  0  0  0  0  0  0  0  0  0  0
    2.7138   -2.3983   -2.2091 H   0  0  0  0  0  0  0  0  0  0  0  0
    0.7937   -3.0649   -0.8731 H   0  0  0  0  0  0  0  0  0  0  0  0
   -1.9809   -4.8363   -1.8248 H   0  0  0  0  0  0  0  0  0  0  0  0
   -3.4899   -2.9668   -1.1500 H   0  0  0  0  0  0  0  0  0  0  0  0
    0.5714    0.8606    2.2944 H   0  0  0  0  0  0  0  0  0  0  0  0
    2.5384    2.0322    3.2777 H   0  0  0  0  0  0  0  0  0  0  0  0
  1 56  1  0  0  0  0
  1  2  1  0  0  0  0
  2  3  1  0  0  0  0
  3  4  1  0  0  0  0
  3 60  1  0  0  0  0
  4  5  1  0  0  0  0
  4 61  1  0  0  0  0
  5 10  1  0  0  0  0
  5  6  1  0  0  0  0
  6  7  1  0  0  0  0
  6 64  1  0  0  0  0
  7  8  1  0  0  0  0
  7 66  1  0  0  0  0
  8 11  1  0  0  0  0
  9 68  1  0  0  0  0
  9  8  1  0  0  0  0
 10  9  1  0  0  0  0
 10 70  1  0  0  0  0
 11 71  1  0  0  0  0
 11 12  1  0  0  0  0
 12 13  1  0  0  0  0
 13 75  1  0  0  0  0
 13 76  1  0  0  0  0
 13 14  1  0  0  0  0
 14 78  1  0  0  0  0
 14 77  1  0  0  0  0
 15 14  1  0  0  0  0
 16 15  1  0  0  0  0
 16 17  1  0  0  0  0
 17 79  1  0  0  0  0
 18 80  1  0  0  0  0
 18 17  2  0  0  0  0
 19 18  1  0  0  0  0
 20 19  1  0  0  0  0
 21 53  2  0  0  0  0
 21 20  1  0  0  0  0
 22 23  1  0  0  0  0
 22 21  1  0  0  0  0
 23 51  1  0  0  0  0
 24 23  2  0  0  0  0
 26 82  1  0  0  0  0
 26 25  1  0  0  0  0
 26 83  1  0  0  0  0
 27 28  1  6  0  0  0
 27 26  1  0  0  0  0
 29 27  1  0  0  0  0
 29 84  1  0  0  0  0
 30 32  2  0  0  0  0
 30 29  1  0  0  0  0
 31 86  1  0  0  0  0
 31 30  1  0  0  0  0
 33 34  1  0  0  0  0
 33 27  1  0  0  0  0
 34 88  1  0  0  0  0
 35 89  1  0  0  0  0
 35 34  1  0  0  0  0
 36 33  2  0  0  0  0
 37 24  1  0  0  0  0
 37 38  1  0  0  0  0
 38 92  1  0  0  0  0
 39 38  2  0  0  0  0
 39 93  1  0  0  0  0
 40 39  1  0  0  0  0
 41 40  1  0  0  0  0
 42 41  1  0  0  0  0
 43 94  1  0  0  0  0
 43 42  2  0  0  0  0
 44 43  1  0  0  0  0
 45 44  2  0  0  0  0
 45 47  1  0  0  0  0
 46 45  1  0  0  0  0
 47 48  2  0  0  0  0
 48 42  1  0  0  0  0
 48 97  1  0  0  0  0
 49 50  1  0  0  0  0
 49 40  2  0  0  0  0
 50 37  2  0  0  0  0
 51 20  1  0  0  0  0
 51 52  2  0  0  0  0
 54 19  2  0  0  0  0
 54 55  1  0  0  0  0
 55 16  2  0  0  0  0
 57  1  1  0  0  0  0
 58  1  1  0  0  0  0
 59  3  1  0  0  0  0
 62  4  1  0  0  0  0
 63  6  1  0  0  0  0
 65  7  1  0  0  0  0
 67  9  1  0  0  0  0
 69 10  1  0  0  0  0
 72 11  1  0  0  0  0
 73 12  1  0  0  0  0
 74 12  1  0  0  0  0
 81 24  1  0  0  0  0
 85 31  1  0  0  0  0
 87 31  1  0  0  0  0
 90 35  1  0  0  0  0
 91 35  1  0  0  0  0
 95 44  1  0  0  0  0
 96 47  1  0  0  0  0
 98 49  1  0  0  0  0
 99 50  1  0  0  0  0
100 54  1  0  0  0  0
101 55  1  0  0  0  0
M  END
