101
-1 1
C       -12.080392   -7.709511  -11.053941
O       -11.776090   -6.555177  -10.323237
C       -10.553187   -6.623372   -9.651148
C       -10.424752   -5.364308   -8.807189
N        -9.065901   -5.059202   -8.412672
C        -8.491636   -6.032449   -7.493300
C        -7.041248   -5.674554   -7.164501
N        -6.874747   -4.314419   -6.662448
C        -7.490799   -3.379954   -7.585595
C        -8.949341   -3.710501   -7.893318
C        -7.249458   -4.150075   -5.268725
C        -6.141904   -4.614424   -4.322445
C        -6.638838   -4.838554   -2.895093
C        -5.743706   -5.748420   -2.051902
O        -5.283033   -6.901721   -2.727948
C        -6.165486   -7.691894   -3.392301
C        -7.491547   -7.886244   -2.999696
C        -8.341163   -8.666528   -3.781816
C        -7.880417   -9.253688   -4.957942
N        -8.765203   -9.995869   -5.787501
C        -9.971420   -9.458759   -6.206419
S       -10.786721  -10.617220   -7.263269
C        -9.430188  -11.779704   -7.182822
C        -9.419614  -12.867611   -8.044885
S        -7.814816  -12.356356   -9.968150
C        -8.059117  -10.564711   -9.940017
C        -9.147824  -10.016377  -10.882272
H        -9.260744   -8.943540  -10.654591
N       -10.449747  -10.603201  -10.612693
C       -10.996392  -11.787719  -11.019280
C       -10.609779  -12.357554  -12.364332
O       -11.840105  -12.338809  -10.322089
C        -8.816477   -9.991831  -12.382711
N        -7.797225  -10.785323  -12.777637
C        -7.448181  -10.921288  -14.166475
O        -9.436381   -9.263487  -13.143866
C        -8.836697  -14.218595   -7.891552
C        -7.804750  -14.563443   -7.006941
C        -7.331881  -15.871314   -6.948781
C        -7.882584  -16.845535   -7.774983
O        -7.407079  -18.143580   -7.716775
C        -6.380888  -18.503123   -8.521014
C        -5.947540  -19.831234   -8.422243
C        -4.899873  -20.289513   -9.210712
C        -4.279986  -19.416047  -10.104295
Br        -2.846261  -20.040007  -11.185394
C        -4.702255  -18.094386  -10.209729
C        -5.753474  -17.632899   -9.419386
C        -8.918154  -16.533474   -8.650377
C        -9.388235  -15.226290   -8.701615
C        -8.412264  -11.291413   -6.281511
O        -7.354134  -11.801679   -5.962158
O       -10.422426   -8.381723   -5.895135
C        -6.541990   -9.093124   -5.328864
C        -5.692100   -8.324165   -4.547188
H       -12.255368   -8.577825  -10.391338
H       -11.278130   -7.985103  -11.764565
H       -13.002889   -7.513039  -11.618222
H        -9.703689   -6.663417  -10.364823
H       -10.503226   -7.536262   -9.021203
H       -11.109113   -5.437048   -7.932414
H       -10.793328   -4.537573   -9.434965
H        -8.507884   -7.031805   -7.954913
H        -9.095302   -6.120659   -6.562825
H        -6.436558   -5.778327   -8.081590
H        -6.647721   -6.394058   -6.431692
H        -6.926006   -3.408777   -8.533917
H        -7.408601   -2.357626   -7.183038
H        -9.337586   -3.003855   -8.645263
H        -9.566311   -3.569696   -6.972897
H        -8.182617   -4.696452   -5.014015
H        -7.470243   -3.084359   -5.089301
H        -5.302696   -3.900483   -4.348813
H        -5.740239   -5.559448   -4.712483
H        -7.652100   -5.266716   -2.942968
H        -6.745042   -3.882480   -2.354641
H        -6.262734   -6.025769   -1.114968
H        -4.822206   -5.220425   -1.765282
H        -7.875062   -7.426533   -2.087683
H        -9.381435   -8.799933   -3.485044
H       -10.287275  -12.886490   -8.711881
H        -7.112173  -10.037910  -10.142415
H        -8.344199  -10.285823   -8.907815
H       -10.797920  -10.349620   -9.690812
H       -11.312691  -13.167080  -12.592487
H        -9.591142  -12.764030  -12.307836
H       -10.648365  -11.590068  -13.149745
H        -7.486003  -11.497545  -12.109172
H        -6.383233  -11.174847  -14.264364
H        -7.646314   -9.971882  -14.680803
H        -8.043135  -11.706482  -14.666983
H        -7.360320  -13.785318   -6.386704
H        -6.519737  -16.142123   -6.271086
H        -6.450296  -20.492634   -7.714943
H        -4.565908  -21.325202   -9.130160
H        -4.215252  -17.412408  -10.908477
H        -6.081139  -16.595588   -9.503610
H        -9.339432  -17.313328   -9.287490
H       -10.191795  -14.966490   -9.395593
H        -6.173157   -9.569526   -6.236842
H        -4.650849   -8.169521   -4.834878
