-1 1
 OpenBabel05192410563D

100105  0  0  1  0  0  0  0  0999 V2000
   -7.3240   -9.9474    6.7265 O   0  0  0  0  0  0  0  0  0  0  0  0
   -6.1730   -9.5375    6.6986 C   0  0  0  0  0  0  0  0  0  0  0  0
   -5.5557   -9.2111    5.5216 N   0  0  0  0  0  0  0  0  0  0  0  0
   -6.2762   -9.4140    4.2705 C   0  0  0  0  0  0  0  0  0  0  0  0
   -6.3417   -8.1069    3.4763 C   0  0  0  0  0  0  0  0  0  0  0  0
   -5.0379   -7.5054    3.2592 N   0  0  0  0  0  0  0  0  0  0  0  0
   -4.3649   -7.3139    4.5287 C   0  0  0  0  0  0  0  0  0  0  0  0
   -4.2457   -8.6008    5.3562 C   0  0  0  0  0  0  0  0  0  0  0  0
   -4.2525   -8.1301    2.2077 C   0  0  0  0  0  0  0  0  0  0  0  0
   -3.0334   -7.3142    1.7831 C   0  0  0  0  0  0  0  0  0  0  0  0
   -3.3588   -5.8766    1.3963 C   0  0  0  0  0  0  0  0  0  0  0  0
   -2.1259   -5.0982    0.9787 C   0  0  0  0  0  0  0  0  0  0  0  0
   -2.5138   -3.7927    0.6597 O   0  0  0  0  0  0  0  0  0  0  0  0
   -1.5638   -2.8973    0.2764 C   0  0  0  0  0  0  0  0  0  0  0  0
   -2.0114   -1.6031   -0.0164 C   0  0  0  0  0  0  0  0  0  0  0  0
   -1.1187   -0.6162   -0.4033 C   0  0  0  0  0  0  0  0  0  0  0  0
    0.2488   -0.9103   -0.5164 C   0  0  0  0  0  0  0  0  0  0  0  0
    1.1630    0.1131   -0.8788 N   0  0  0  0  0  0  0  0  0  0  0  0
    2.3075    0.3445   -0.1522 C   0  0  0  0  0  0  0  0  0  0  0  0
    3.0663    1.8461   -0.7212 S   0  0  0  0  0  0  0  0  0  0  0  0
    1.7543    2.1397   -1.8758 C   0  0  2  0  0  3  0  0  0  0  0  0
    1.6036    3.3531   -2.6997 C   0  0  1  0  0  0  0  0  0  0  0  0
    0.6938    4.7972   -1.8540 S   0  0  0  0  0  0  0  0  0  0  0  0
   -0.8391    3.9480   -1.3588 C   0  0  0  0  0  0  0  0  0  0  0  0
   -1.0319    3.7813    0.1477 C   0  0  2  0  0  0  0  0  0  0  0  0
   -1.1270    4.7686    0.6327 H   0  0  0  0  0  0  0  0  0  0  0  0
    0.0966    3.1053    0.7651 N   0  0  0  0  0  0  0  0  0  0  0  0
    0.4131    3.2633    2.0702 C   0  0  0  0  0  0  0  0  0  0  0  0
    1.7173    2.6508    2.5213 C   0  0  0  0  0  0  0  0  0  0  0  0
   -0.3201    3.8667    2.8535 O   0  0  0  0  0  0  0  0  0  0  0  0
   -2.3445    3.0055    0.4166 C   0  0  0  0  0  0  0  0  0  0  0  0
   -2.7376    3.0358    1.7123 N   0  0  0  0  0  0  0  0  0  0  0  0
   -3.8399    2.2442    2.1907 C   0  0  0  0  0  0  0  0  0  0  0  0
   -2.9559    2.4262   -0.4653 O   0  0  0  0  0  0  0  0  0  0  0  0
    2.8911    3.9161   -3.2571 C   0  0  0  0  0  0  0  0  0  0  0  0
    3.2348    3.6846   -4.5935 C   0  0  0  0  0  0  0  0  0  0  0  0
    4.4328    4.1583   -5.1224 C   0  0  0  0  0  0  0  0  0  0  0  0
    5.3041    4.8732   -4.3058 C   0  0  0  0  0  0  0  0  0  0  0  0
    6.5023    5.3286   -4.8200 O   0  0  0  0  0  0  0  0  0  0  0  0
    6.5605    6.5702   -5.3649 C   0  0  0  0  0  0  0  0  0  0  0  0
    7.8047    6.9730   -5.8647 C   0  0  0  0  0  0  0  0  0  0  0  0
    7.9577    8.2284   -6.4419 C   0  0  0  0  0  0  0  0  0  0  0  0
    6.8607    9.0797   -6.5170 C   0  0  0  0  0  0  0  0  0  0  0  0
    7.0068   10.2904   -7.0732 F   0  0  0  0  0  0  0  0  0  0  0  0
    5.6214    8.6967   -6.0267 C   0  0  0  0  0  0  0  0  0  0  0  0
    5.4663    7.4371   -5.4474 C   0  0  0  0  0  0  0  0  0  0  0  0
    4.9905    5.1098   -2.9712 C   0  0  0  0  0  0  0  0  0  0  0  0
    3.7884    4.6320   -2.4545 C   0  0  0  0  0  0  0  0  0  0  0  0
    0.8332    1.0879   -1.9098 C   0  0  0  0  0  0  0  0  0  0  0  0
   -0.1649    0.9355   -2.6194 O   0  0  0  0  0  0  0  0  0  0  0  0
    2.7497   -0.3296    0.7578 O   0  0  0  0  0  0  0  0  0  0  0  0
    0.6921   -2.1991   -0.2368 C   0  0  0  0  0  0  0  0  0  0  0  0
   -0.2039   -3.1930    0.1654 C   0  0  0  0  0  0  0  0  0  0  0  0
   -5.4072   -9.3811    7.9823 C   0  0  0  0  0  0  0  0  0  0  0  0
   -6.1566   -8.7502    9.1373 C   0  0  0  0  0  0  0  0  0  0  0  0
   -5.8812  -10.2142    9.1484 C   0  0  0  0  0  0  0  0  0  0  0  0
   -7.2780   -9.7821    4.5196 H   0  0  0  0  0  0  0  0  0  0  0  0
   -5.7594  -10.1943    3.6819 H   0  0  0  0  0  0  0  0  0  0  0  0
   -6.9690   -7.3898    4.0337 H   0  0  0  0  0  0  0  0  0  0  0  0
   -6.8298   -8.2815    2.5052 H   0  0  0  0  0  0  0  0  0  0  0  0
   -4.9419   -6.5795    5.1172 H   0  0  0  0  0  0  0  0  0  0  0  0
   -3.3671   -6.8807    4.3685 H   0  0  0  0  0  0  0  0  0  0  0  0
   -3.8028   -8.3609    6.3279 H   0  0  0  0  0  0  0  0  0  0  0  0
   -3.5675   -9.3160    4.8545 H   0  0  0  0  0  0  0  0  0  0  0  0
   -4.9196   -8.2381    1.3361 H   0  0  0  0  0  0  0  0  0  0  0  0
   -3.9149   -9.1596    2.4619 H   0  0  0  0  0  0  0  0  0  0  0  0
   -2.5646   -7.8385    0.9330 H   0  0  0  0  0  0  0  0  0  0  0  0
   -2.2716   -7.3228    2.5827 H   0  0  0  0  0  0  0  0  0  0  0  0
   -3.8427   -5.3589    2.2382 H   0  0  0  0  0  0  0  0  0  0  0  0
   -4.0878   -5.8636    0.5694 H   0  0  0  0  0  0  0  0  0  0  0  0
   -1.6390   -5.5846    0.1100 H   0  0  0  0  0  0  0  0  0  0  0  0
   -1.3837   -5.0940    1.8021 H   0  0  0  0  0  0  0  0  0  0  0  0
   -3.0767   -1.3825    0.0705 H   0  0  0  0  0  0  0  0  0  0  0  0
   -1.4883    0.3820   -0.6398 H   0  0  0  0  0  0  0  0  0  0  0  0
    0.9396    3.0778   -3.5303 H   0  0  0  0  0  0  0  0  0  0  0  0
   -0.8755    2.9659   -1.8536 H   0  0  0  0  0  0  0  0  0  0  0  0
   -1.6878    4.5235   -1.7506 H   0  0  0  0  0  0  0  0  0  0  0  0
    0.7724    2.6850    0.1271 H   0  0  0  0  0  0  0  0  0  0  0  0
    1.7967    2.7702    3.6078 H   0  0  0  0  0  0  0  0  0  0  0  0
    2.5632    3.1495    2.0267 H   0  0  0  0  0  0  0  0  0  0  0  0
    1.7785    1.5851    2.2558 H   0  0  0  0  0  0  0  0  0  0  0  0
   -2.0782    3.4556    2.3732 H   0  0  0  0  0  0  0  0  0  0  0  0
   -3.4970    1.3478    2.7354 H   0  0  0  0  0  0  0  0  0  0  0  0
   -4.4289    1.9154    1.3249 H   0  0  0  0  0  0  0  0  0  0  0  0
   -4.4843    2.8333    2.8618 H   0  0  0  0  0  0  0  0  0  0  0  0
    2.5504    3.1170   -5.2283 H   0  0  0  0  0  0  0  0  0  0  0  0
    4.7013    3.9815   -6.1658 H   0  0  0  0  0  0  0  0  0  0  0  0
    8.6448    6.2808   -5.7895 H   0  0  0  0  0  0  0  0  0  0  0  0
    8.9211    8.5567   -6.8355 H   0  0  0  0  0  0  0  0  0  0  0  0
    4.7782    9.3857   -6.0983 H   0  0  0  0  0  0  0  0  0  0  0  0
    4.4935    7.1322   -5.0597 H   0  0  0  0  0  0  0  0  0  0  0  0
    5.6907    5.6688   -2.3475 H   0  0  0  0  0  0  0  0  0  0  0  0
    3.5356    4.8229   -1.4087 H   0  0  0  0  0  0  0  0  0  0  0  0
    1.7544   -2.4295   -0.3122 H   0  0  0  0  0  0  0  0  0  0  0  0
    0.1813   -4.1889    0.3855 H   0  0  0  0  0  0  0  0  0  0  0  0
   -4.3361   -9.1896    7.9374 H   0  0  0  0  0  0  0  0  0  0  0  0
   -7.1823   -8.4374    8.9284 H   0  0  0  0  0  0  0  0  0  0  0  0
   -5.5920   -8.0963    9.8059 H   0  0  0  0  0  0  0  0  0  0  0  0
   -6.7214  -10.8802    8.9420 H   0  0  0  0  0  0  0  0  0  0  0  0
   -5.1167  -10.6005    9.8263 H   0  0  0  0  0  0  0  0  0  0  0  0
  2  1  2  0  0  0  0
  2 54  1  0  0  0  0
  3  2  1  0  0  0  0
  4 57  1  0  0  0  0
  4  3  1  0  0  0  0
  5 59  1  0  0  0  0
  5  4  1  0  0  0  0
  6  5  1  0  0  0  0
  6  7  1  0  0  0  0
  7 61  1  0  0  0  0
  7  8  1  0  0  0  0
  8  3  1  0  0  0  0
  8 63  1  0  0  0  0
  9 66  1  0  0  0  0
  9  6  1  0  0  0  0
 10  9  1  0  0  0  0
 10 68  1  0  0  0  0
 11 10  1  0  0  0  0
 11 69  1  0  0  0  0
 12 11  1  0  0  0  0
 12 72  1  0  0  0  0
 13 12  1  0  0  0  0
 14 13  1  0  0  0  0
 15 73  1  0  0  0  0
 15 14  2  0  0  0  0
 16 15  1  0  0  0  0
 17 16  2  0  0  0  0
 17 52  1  0  0  0  0
 18 17  1  0  0  0  0
 18 19  1  0  0  0  0
 19 51  2  0  0  0  0
 20 19  1  0  0  0  0
 21 22  1  1  0  0  0
 21 20  1  0  0  0  0
 22 75  1  6  0  0  0
 22 23  1  0  0  0  0
 23 24  1  0  0  0  0
 24 25  1  0  0  0  0
 25 31  1  0  0  0  0
 25 26  1  1  0  0  0
 25 27  1  0  0  0  0
 27 28  1  0  0  0  0
 28 29  1  0  0  0  0
 28 30  2  0  0  0  0
 29 79  1  0  0  0  0
 31 32  1  0  0  0  0
 32 33  1  0  0  0  0
 32 82  1  0  0  0  0
 33 83  1  0  0  0  0
 33 85  1  0  0  0  0
 34 31  2  0  0  0  0
 35 22  1  0  0  0  0
 35 48  1  0  0  0  0
 36 35  2  0  0  0  0
 37 36  1  0  0  0  0
 37 38  2  0  0  0  0
 38 47  1  0  0  0  0
 39 38  1  0  0  0  0
 40 39  1  0  0  0  0
 41 88  1  0  0  0  0
 41 40  2  0  0  0  0
 42 41  1  0  0  0  0
 43 42  2  0  0  0  0
 43 45  1  0  0  0  0
 44 43  1  0  0  0  0
 45 46  2  0  0  0  0
 46 40  1  0  0  0  0
 46 91  1  0  0  0  0
 47 48  2  0  0  0  0
 47 92  1  0  0  0  0
 48 93  1  0  0  0  0
 49 21  1  0  0  0  0
 49 18  1  0  0  0  0
 50 49  2  0  0  0  0
 52 53  2  0  0  0  0
 53 14  1  0  0  0  0
 53 95  1  0  0  0  0
 54 55  1  0  0  0  0
 54 56  1  0  0  0  0
 55 56  1  0  0  0  0
 55 98  1  0  0  0  0
 56100  1  0  0  0  0
 58  4  1  0  0  0  0
 60  5  1  0  0  0  0
 62  7  1  0  0  0  0
 64  8  1  0  0  0  0
 65  9  1  0  0  0  0
 67 10  1  0  0  0  0
 70 11  1  0  0  0  0
 71 12  1  0  0  0  0
 74 16  1  0  0  0  0
 76 24  1  0  0  0  0
 77 24  1  0  0  0  0
 78 27  1  0  0  0  0
 80 29  1  0  0  0  0
 81 29  1  0  0  0  0
 84 33  1  0  0  0  0
 86 36  1  0  0  0  0
 87 37  1  0  0  0  0
 89 42  1  0  0  0  0
 90 45  1  0  0  0  0
 94 52  1  0  0  0  0
 96 54  1  0  0  0  0
 97 55  1  0  0  0  0
 99 56  1  0  0  0  0
M  END
