-1 1
 OpenBabel05232413493D

100104  0  0  1  0  0  0  0  0999 V2000
   -7.6500  -10.0814    7.0196 O   0  0  0  0  0  0  0  0  0  0  0  0
   -6.5221   -9.6141    7.0681 C   0  0  0  0  0  0  0  0  0  0  0  0
   -5.8112   -9.3367    5.9313 N   0  0  0  0  0  0  0  0  0  0  0  0
   -6.3965   -9.6684    4.6381 C   0  0  0  0  0  0  0  0  0  0  0  0
   -6.4442   -8.4286    3.7423 C   0  0  0  0  0  0  0  0  0  0  0  0
   -5.1538   -7.7766    3.6011 N   0  0  0  0  0  0  0  0  0  0  0  0
   -4.6159   -7.4574    4.9091 C   0  0  0  0  0  0  0  0  0  0  0  0
   -4.5211   -8.6716    5.8433 C   0  0  0  0  0  0  0  0  0  0  0  0
   -4.2396   -8.4314    2.6808 C   0  0  0  0  0  0  0  0  0  0  0  0
   -3.0555   -7.5581    2.2700 C   0  0  0  0  0  0  0  0  0  0  0  0
   -3.4631   -6.2018    1.7072 C   0  0  0  0  0  0  0  0  0  0  0  0
   -2.2672   -5.3571    1.3139 C   0  0  0  0  0  0  0  0  0  0  0  0
   -2.7344   -4.1306    0.8207 O   0  0  0  0  0  0  0  0  0  0  0  0
   -1.8423   -3.1931    0.4210 C   0  0  0  0  0  0  0  0  0  0  0  0
   -2.3788   -1.9871   -0.0491 C   0  0  0  0  0  0  0  0  0  0  0  0
   -1.5496   -0.9592   -0.4708 C   0  0  0  0  0  0  0  0  0  0  0  0
   -0.1636   -1.1377   -0.4363 C   0  0  0  0  0  0  0  0  0  0  0  0
    0.7020   -0.0900   -0.8776 N   0  0  0  0  0  0  0  0  0  0  0  0
    1.6710    0.4443   -0.0416 C   0  0  0  0  0  0  0  0  0  0  0  0
    2.6190    1.6840   -0.9030 S   0  0  0  0  0  0  0  0  0  0  0  0
    1.6833    1.4643   -2.3808 C   0  0  0  0  0  0  0  0  0  0  0  0
    1.7900    2.1379   -3.5387 C   0  0  0  0  0  0  0  0  0  0  0  0
   -1.0033    4.8422   -4.2546 S   0  0  0  0  0  1  0  0  0  0  0  0
   -1.5478    3.6633   -2.9700 C   0  0  0  0  0  0  0  0  0  0  0  0
   -1.0503    4.0142   -1.5475 C   0  0  2  0  0  0  0  0  0  0  0  0
   -1.6428    4.8711   -1.1694 H   0  0  0  0  0  0  0  0  0  0  0  0
    0.3397    4.4317   -1.6628 N   0  0  0  0  0  0  0  0  0  0  0  0
    1.1162    5.0314   -0.7486 C   0  0  0  0  0  0  0  0  0  0  0  0
    2.3897    5.6458   -1.2972 C   0  0  0  0  0  0  0  0  0  0  0  0
    0.8890    5.0671    0.4630 O   0  0  0  0  0  0  0  0  0  0  0  0
   -1.3591    2.8525   -0.5844 C   0  0  0  0  0  0  0  0  0  0  0  0
   -0.6518    2.8050    0.5667 N   0  0  0  0  0  0  0  0  0  0  0  0
   -1.0039    1.9145    1.6467 C   0  0  0  0  0  0  0  0  0  0  0  0
   -2.2576    2.0614   -0.8475 O   0  0  0  0  0  0  0  0  0  0  0  0
    2.7819    3.1582   -3.8945 C   0  0  0  0  0  0  0  0  0  0  0  0
    2.4168    4.1687   -4.7988 C   0  0  0  0  0  0  0  0  0  0  0  0
    3.3125    5.1816   -5.1272 C   0  0  0  0  0  0  0  0  0  0  0  0
    4.5921    5.1788   -4.5787 C   0  0  0  0  0  0  0  0  0  0  0  0
    5.4679    6.1667   -4.9580 O   0  0  0  0  0  0  0  0  0  0  0  0
    6.0890    6.9247   -4.0130 C   0  0  0  0  0  0  0  0  0  0  0  0
    7.3161    7.4937   -4.3621 C   0  0  0  0  0  0  0  0  0  0  0  0
    7.9852    8.3206   -3.4641 C   0  0  0  0  0  0  0  0  0  0  0  0
    7.4216    8.5643   -2.2177 C   0  0  0  0  0  0  0  0  0  0  0  0
    8.0676    9.3534   -1.3502 F   0  0  0  0  0  0  0  0  0  0  0  0
    6.2026    8.0061   -1.8562 C   0  0  0  0  0  0  0  0  0  0  0  0
    5.5297    7.1854   -2.7584 C   0  0  0  0  0  0  0  0  0  0  0  0
    4.9901    4.1618   -3.7092 C   0  0  0  0  0  0  0  0  0  0  0  0
    4.0853    3.1631   -3.3698 C   0  0  0  0  0  0  0  0  0  0  0  0
    0.6430    0.4139   -2.1891 C   0  0  0  0  0  0  0  0  0  0  0  0
   -0.1211    0.0139   -3.0259 O   0  0  0  0  0  0  0  0  0  0  0  0
    1.8853    0.1228    1.0958 O   0  0  0  0  0  0  0  0  0  0  0  0
    0.3770   -2.3337    0.0202 C   0  0  0  0  0  0  0  0  0  0  0  0
   -0.4548   -3.3642    0.4584 C   0  0  0  0  0  0  0  0  0  0  0  0
   -5.8899   -9.3293    8.4013 C   0  0  0  0  0  0  0  0  0  0  0  0
   -6.7714   -8.6538    9.4313 C   0  0  0  0  0  0  0  0  0  0  0  0
   -6.4386  -10.0983    9.5786 C   0  0  0  0  0  0  0  0  0  0  0  0
   -7.4001  -10.0696    4.8201 H   0  0  0  0  0  0  0  0  0  0  0  0
   -5.7903  -10.4613    4.1624 H   0  0  0  0  0  0  0  0  0  0  0  0
   -7.1537   -7.7060    4.1814 H   0  0  0  0  0  0  0  0  0  0  0  0
   -6.8282   -8.6984    2.7465 H   0  0  0  0  0  0  0  0  0  0  0  0
   -5.2778   -6.7110    5.3816 H   0  0  0  0  0  0  0  0  0  0  0  0
   -3.6264   -6.9882    4.8086 H   0  0  0  0  0  0  0  0  0  0  0  0
   -4.1886   -8.3362    6.8307 H   0  0  0  0  0  0  0  0  0  0  0  0
   -3.7639   -9.3848    5.4673 H   0  0  0  0  0  0  0  0  0  0  0  0
   -4.8203   -8.6767    1.7761 H   0  0  0  0  0  0  0  0  0  0  0  0
   -3.8468   -9.4000    3.0621 H   0  0  0  0  0  0  0  0  0  0  0  0
   -2.4719   -8.1206    1.5216 H   0  0  0  0  0  0  0  0  0  0  0  0
   -2.3711   -7.4174    3.1253 H   0  0  0  0  0  0  0  0  0  0  0  0
   -4.0650   -5.6534    2.4471 H   0  0  0  0  0  0  0  0  0  0  0  0
   -4.1102   -6.3378    0.8251 H   0  0  0  0  0  0  0  0  0  0  0  0
   -1.6614   -5.8776    0.5462 H   0  0  0  0  0  0  0  0  0  0  0  0
   -1.6103   -5.1959    2.1914 H   0  0  0  0  0  0  0  0  0  0  0  0
   -3.4635   -1.8707   -0.0664 H   0  0  0  0  0  0  0  0  0  0  0  0
   -1.9647   -0.0040   -0.8065 H   0  0  0  0  0  0  0  0  0  0  0  0
    1.0152    1.9151   -4.2798 H   0  0  0  0  0  0  0  0  0  0  0  0
   -1.2011    2.6442   -3.2064 H   0  0  0  0  0  0  0  0  0  0  0  0
   -2.6423    3.6032   -2.9224 H   0  0  0  0  0  0  0  0  0  0  0  0
    0.4944    4.6900   -2.6577 H   0  0  0  0  0  0  0  0  0  0  0  0
    2.5712    6.5946   -0.7743 H   0  0  0  0  0  0  0  0  0  0  0  0
    2.3490    5.8106   -2.3832 H   0  0  0  0  0  0  0  0  0  0  0  0
    3.2280    4.9680   -1.0745 H   0  0  0  0  0  0  0  0  0  0  0  0
   -0.0270    3.6010    0.7517 H   0  0  0  0  0  0  0  0  0  0  0  0
   -0.2072    1.1849    1.8585 H   0  0  0  0  0  0  0  0  0  0  0  0
   -1.9149    1.3680    1.3705 H   0  0  0  0  0  0  0  0  0  0  0  0
   -1.1995    2.4870    2.5679 H   0  0  0  0  0  0  0  0  0  0  0  0
    1.3846    4.1998   -5.1683 H   0  0  0  0  0  0  0  0  0  0  0  0
    3.0223    5.9887   -5.8014 H   0  0  0  0  0  0  0  0  0  0  0  0
    7.7315    7.2788   -5.3478 H   0  0  0  0  0  0  0  0  0  0  0  0
    8.9442    8.7749   -3.7187 H   0  0  0  0  0  0  0  0  0  0  0  0
    5.7807    8.2202   -0.8730 H   0  0  0  0  0  0  0  0  0  0  0  0
    4.5677    6.7497   -2.4867 H   0  0  0  0  0  0  0  0  0  0  0  0
    6.0034    4.1589   -3.3028 H   0  0  0  0  0  0  0  0  0  0  0  0
    4.4147    2.3597   -2.7078 H   0  0  0  0  0  0  0  0  0  0  0  0
    1.4599   -2.4643    0.0473 H   0  0  0  0  0  0  0  0  0  0  0  0
   -0.0053   -4.2888    0.8198 H   0  0  0  0  0  0  0  0  0  0  0  0
   -4.8279   -9.0909    8.4408 H   0  0  0  0  0  0  0  0  0  0  0  0
   -7.7845   -8.4061    9.1059 H   0  0  0  0  0  0  0  0  0  0  0  0
   -6.3006   -7.9275   10.0977 H   0  0  0  0  0  0  0  0  0  0  0  0
   -7.2271  -10.8171    9.3469 H   0  0  0  0  0  0  0  0  0  0  0  0
   -5.7271  -10.3979   10.3513 H   0  0  0  0  0  0  0  0  0  0  0  0
  1  2  2  0  0  0  0
  2 54  1  0  0  0  0
  3  2  1  0  0  0  0
  4 57  1  0  0  0  0
  4  3  1  0  0  0  0
  5 59  1  0  0  0  0
  5  4  1  0  0  0  0
  6  5  1  0  0  0  0
  6  7  1  0  0  0  0
  7 61  1  0  0  0  0
  7  8  1  0  0  0  0
  8  3  1  0  0  0  0
  8 63  1  0  0  0  0
  9 66  1  0  0  0  0
  9  6  1  0  0  0  0
 10  9  1  0  0  0  0
 10 68  1  0  0  0  0
 11 10  1  0  0  0  0
 11 69  1  0  0  0  0
 12 11  1  0  0  0  0
 12 72  1  0  0  0  0
 13 12  1  0  0  0  0
 14 53  1  0  0  0  0
 14 13  1  0  0  0  0
 15 14  2  0  0  0  0
 16 17  2  0  0  0  0
 16 15  1  0  0  0  0
 17 52  1  0  0  0  0
 18 17  1  0  0  0  0
 18 19  1  0  0  0  0
 19 51  2  0  0  0  0
 20 19  1  0  0  0  0
 21 49  1  0  0  0  0
 21 20  1  0  0  0  0
 22 21  2  0  0  0  0
 23 24  1  0  0  0  0
 24 77  1  0  0  0  0
 24 25  1  0  0  0  0
 25 26  1  1  0  0  0
 25 31  1  0  0  0  0
 27 25  1  0  0  0  0
 27 28  1  0  0  0  0
 28 30  2  0  0  0  0
 29 81  1  0  0  0  0
 29 79  1  0  0  0  0
 29 28  1  0  0  0  0
 31 32  1  0  0  0  0
 32 82  1  0  0  0  0
 32 33  1  0  0  0  0
 33 83  1  0  0  0  0
 33 85  1  0  0  0  0
 34 31  2  0  0  0  0
 35 22  1  0  0  0  0
 35 48  1  0  0  0  0
 36 35  2  0  0  0  0
 37 36  1  0  0  0  0
 37 38  2  0  0  0  0
 38 47  1  0  0  0  0
 39 38  1  0  0  0  0
 39 40  1  0  0  0  0
 40 46  1  0  0  0  0
 41 40  2  0  0  0  0
 41 42  1  0  0  0  0
 42 43  2  0  0  0  0
 43 45  1  0  0  0  0
 43 44  1  0  0  0  0
 45 90  1  0  0  0  0
 46 91  1  0  0  0  0
 46 45  2  0  0  0  0
 47 48  2  0  0  0  0
 47 92  1  0  0  0  0
 48 93  1  0  0  0  0
 49 18  1  0  0  0  0
 50 49  2  0  0  0  0
 52 94  1  0  0  0  0
 52 53  2  0  0  0  0
 53 95  1  0  0  0  0
 54 96  1  0  0  0  0
 54 55  1  0  0  0  0
 54 56  1  0  0  0  0
 55 56  1  0  0  0  0
 55 98  1  0  0  0  0
 56100  1  0  0  0  0
 58  4  1  0  0  0  0
 60  5  1  0  0  0  0
 62  7  1  0  0  0  0
 64  8  1  0  0  0  0
 65  9  1  0  0  0  0
 67 10  1  0  0  0  0
 70 11  1  0  0  0  0
 71 12  1  0  0  0  0
 73 15  1  0  0  0  0
 74 16  1  0  0  0  0
 75 22  1  0  0  0  0
 76 24  1  0  0  0  0
 78 27  1  0  0  0  0
 80 29  1  0  0  0  0
 84 33  1  0  0  0  0
 86 36  1  0  0  0  0
 87 37  1  0  0  0  0
 88 41  1  0  0  0  0
 89 42  1  0  0  0  0
 97 55  1  0  0  0  0
 99 56  1  0  0  0  0
M  END
