100
-1 1
O        10.729889  -17.325453    7.411431
C        11.886168  -16.930746    7.432402
N        12.597952  -16.734127    6.279744
C        11.972650  -17.059718    5.003805
C        11.984992  -15.839929    4.079117
N        13.309597  -15.270862    3.903159
C        13.887638  -14.955453    5.194757
C        13.924933  -16.151857    6.155323
C        14.164909  -16.001742    2.983364
C        15.412440  -15.228765    2.560219
C        15.115297  -13.840936    2.005239
C        16.372382  -13.108472    1.578031
O        16.007756  -11.837147    1.116499
C        16.975953  -10.978658    0.708080
C        16.548577   -9.711338    0.293568
C        17.461818   -8.757025   -0.127072
C        18.827526   -9.063471   -0.150177
N        19.774928   -8.082483   -0.563740
C        20.906507   -7.814526    0.183951
S        21.871640   -6.550735   -0.610471
C        20.651713   -6.313168   -1.866144
C        20.572933   -5.282380   -2.764960
S        19.406242   -3.203836   -1.596626
C        17.954064   -4.150802   -1.048068
C        17.859925   -4.395831    0.466540
H        17.579462   -3.458036    0.982538
N        19.166596   -4.815210    0.960178
C        19.568492   -4.717114    2.247341
C        21.052209   -4.885489    2.485026
O        18.794822   -4.549000    3.188862
C        16.738749   -5.421540    0.756435
N        16.616935   -5.786327    2.050506
C        15.660005   -6.766835    2.487592
O        16.008418   -5.843690   -0.129942
C        21.654923   -4.400654   -3.237905
C        21.599425   -3.936603   -4.560839
C        22.581147   -3.098029   -5.077359
C        23.639976   -2.705833   -4.264122
O        24.616921   -1.872186   -4.768155
C        24.471865   -0.528123   -4.623553
C        25.498139    0.267287   -5.145520
C        25.433334    1.652667   -5.044779
C        24.337495    2.236848   -4.419445
F        24.274472    3.572319   -4.321956
C        23.312289    1.462651   -3.896708
C        23.375230    0.072801   -3.997072
C        23.724278   -3.154928   -2.949293
C        22.737871   -3.994598   -2.443089
C        19.580900   -7.294944   -1.735761
O        18.647365   -7.472040   -2.487171
O        21.236974   -8.348812    1.214259
C        19.255018  -10.326972    0.245026
C        18.339052  -11.285130    0.682127
C        12.553210  -16.647735    8.748981
C        11.730635  -15.885605    9.767138
C        11.971738  -17.343560    9.955625
H        10.949869  -17.395026    5.210421
H        12.522514  -17.898543    4.538607
H        11.327161  -15.066122    4.511498
H        11.569438  -16.109181    3.095930
H        13.279290  -14.160401    5.659739
H        14.901289  -14.548508    5.068140
H        14.295403  -15.816345    7.128989
H        14.629518  -16.918784    5.783048
H        13.561008  -16.206528    2.083647
H        14.481949  -16.995924    3.369774
H        15.937274  -15.836226    1.803299
H        16.117248  -15.149315    3.406769
H        14.587391  -13.238072    2.759155
H        14.433606  -13.916825    1.142169
H        16.898464  -13.674858    0.784227
H        17.072562  -13.023931    2.432778
H        15.481926   -9.482852    0.316113
H        17.101578   -7.777234   -0.443718
H        19.711651   -5.359341   -3.432630
H        17.955804   -5.132193   -1.545620
H        17.024855   -3.659331   -1.364891
H        19.888965   -4.658434    0.248917
H        21.298549   -4.456624    3.463519
H        21.652877   -4.413972    1.695508
H        21.291761   -5.960413    2.495917
H        17.276756   -5.365569    2.713063
H        16.145205   -7.718151    2.764950
H        14.964707   -6.963877    1.661241
H        15.089433   -6.399965    3.355787
H        20.755790   -4.228673   -5.189876
H        22.529073   -2.729851   -6.103674
H        26.343756   -0.223885   -5.629543
H        26.225127    2.287371   -5.446278
H        22.464059    1.946861   -3.410216
H        22.569456   -0.537319   -3.585673
H        24.555391   -2.824317   -2.323616
H        22.789896   -4.293854   -1.396195
H        20.318077  -10.567254    0.232815
H        18.708919  -12.261247    0.995698
H        13.628651  -16.477240    8.769082
H        10.731475  -15.582865    9.445407
H        12.255990  -15.171308   10.405240
H        11.135555  -18.016358    9.755071
H        12.672594  -17.664993   10.729297
