-1 1
 OpenBabel05232414493D

100104  0  0  1  0  0  0  0  0999 V2000
   10.7299  -17.3255    7.4114 O   0  0  0  0  0  0  0  0  0  0  0  0
   11.8862  -16.9307    7.4324 C   0  0  0  0  0  0  0  0  0  0  0  0
   12.5980  -16.7341    6.2797 N   0  0  0  0  0  0  0  0  0  0  0  0
   11.9726  -17.0597    5.0038 C   0  0  0  0  0  0  0  0  0  0  0  0
   11.9850  -15.8399    4.0791 C   0  0  0  0  0  0  0  0  0  0  0  0
   13.3096  -15.2709    3.9032 N   0  0  0  0  0  0  0  0  0  0  0  0
   13.8876  -14.9555    5.1948 C   0  0  0  0  0  0  0  0  0  0  0  0
   13.9249  -16.1519    6.1553 C   0  0  0  0  0  0  0  0  0  0  0  0
   14.1649  -16.0017    2.9834 C   0  0  0  0  0  0  0  0  0  0  0  0
   15.4124  -15.2288    2.5602 C   0  0  0  0  0  0  0  0  0  0  0  0
   15.1153  -13.8409    2.0052 C   0  0  0  0  0  0  0  0  0  0  0  0
   16.3724  -13.1085    1.5780 C   0  0  0  0  0  0  0  0  0  0  0  0
   16.0078  -11.8371    1.1165 O   0  0  0  0  0  0  0  0  0  0  0  0
   16.9760  -10.9787    0.7081 C   0  0  0  0  0  0  0  0  0  0  0  0
   16.5486   -9.7113    0.2936 C   0  0  0  0  0  0  0  0  0  0  0  0
   17.4618   -8.7570   -0.1271 C   0  0  0  0  0  0  0  0  0  0  0  0
   18.8275   -9.0635   -0.1502 C   0  0  0  0  0  0  0  0  0  0  0  0
   19.7749   -8.0825   -0.5637 N   0  0  0  0  0  0  0  0  0  0  0  0
   20.9065   -7.8145    0.1840 C   0  0  0  0  0  0  0  0  0  0  0  0
   21.8716   -6.5507   -0.6105 S   0  0  0  0  0  0  0  0  0  0  0  0
   20.6517   -6.3132   -1.8661 C   0  0  2  0  0  3  0  0  0  0  0  0
   20.5729   -5.2824   -2.7650 C   0  0  0  0  0  3  0  0  0  0  0  0
   19.4062   -3.2038   -1.5966 S   0  0  0  0  0  1  0  0  0  0  0  0
   17.9541   -4.1508   -1.0481 C   0  0  0  0  0  0  0  0  0  0  0  0
   17.8599   -4.3958    0.4665 C   0  0  2  0  0  0  0  0  0  0  0  0
   17.5795   -3.4580    0.9825 H   0  0  0  0  0  0  0  0  0  0  0  0
   19.1666   -4.8152    0.9602 N   0  0  0  0  0  0  0  0  0  0  0  0
   19.5685   -4.7171    2.2473 C   0  0  0  0  0  0  0  0  0  0  0  0
   21.0522   -4.8855    2.4850 C   0  0  0  0  0  0  0  0  0  0  0  0
   18.7948   -4.5490    3.1889 O   0  0  0  0  0  0  0  0  0  0  0  0
   16.7387   -5.4215    0.7564 C   0  0  0  0  0  0  0  0  0  0  0  0
   16.6169   -5.7863    2.0505 N   0  0  0  0  0  0  0  0  0  0  0  0
   15.6600   -6.7668    2.4876 C   0  0  0  0  0  0  0  0  0  0  0  0
   16.0084   -5.8437   -0.1299 O   0  0  0  0  0  0  0  0  0  0  0  0
   21.6549   -4.4007   -3.2379 C   0  0  0  0  0  0  0  0  0  0  0  0
   21.5994   -3.9366   -4.5608 C   0  0  0  0  0  0  0  0  0  0  0  0
   22.5811   -3.0980   -5.0774 C   0  0  0  0  0  0  0  0  0  0  0  0
   23.6400   -2.7058   -4.2641 C   0  0  0  0  0  0  0  0  0  0  0  0
   24.6169   -1.8722   -4.7682 O   0  0  0  0  0  0  0  0  0  0  0  0
   24.4719   -0.5281   -4.6236 C   0  0  0  0  0  0  0  0  0  0  0  0
   25.4981    0.2673   -5.1455 C   0  0  0  0  0  0  0  0  0  0  0  0
   25.4333    1.6527   -5.0448 C   0  0  0  0  0  0  0  0  0  0  0  0
   24.3375    2.2368   -4.4194 C   0  0  0  0  0  0  0  0  0  0  0  0
   24.2745    3.5723   -4.3220 F   0  0  0  0  0  0  0  0  0  0  0  0
   23.3123    1.4627   -3.8967 C   0  0  0  0  0  0  0  0  0  0  0  0
   23.3752    0.0728   -3.9971 C   0  0  0  0  0  0  0  0  0  0  0  0
   23.7243   -3.1549   -2.9493 C   0  0  0  0  0  0  0  0  0  0  0  0
   22.7379   -3.9946   -2.4431 C   0  0  0  0  0  0  0  0  0  0  0  0
   19.5809   -7.2949   -1.7358 C   0  0  0  0  0  0  0  0  0  0  0  0
   18.6474   -7.4720   -2.4872 O   0  0  0  0  0  0  0  0  0  0  0  0
   21.2370   -8.3488    1.2143 O   0  0  0  0  0  0  0  0  0  0  0  0
   19.2550  -10.3270    0.2450 C   0  0  0  0  0  0  0  0  0  0  0  0
   18.3391  -11.2851    0.6821 C   0  0  0  0  0  0  0  0  0  0  0  0
   12.5532  -16.6477    8.7490 C   0  0  0  0  0  0  0  0  0  0  0  0
   11.7306  -15.8856    9.7671 C   0  0  0  0  0  0  0  0  0  0  0  0
   11.9717  -17.3436    9.9556 C   0  0  0  0  0  0  0  0  0  0  0  0
   10.9499  -17.3950    5.2104 H   0  0  0  0  0  0  0  0  0  0  0  0
   12.5225  -17.8985    4.5386 H   0  0  0  0  0  0  0  0  0  0  0  0
   11.3272  -15.0661    4.5115 H   0  0  0  0  0  0  0  0  0  0  0  0
   11.5694  -16.1092    3.0959 H   0  0  0  0  0  0  0  0  0  0  0  0
   13.2793  -14.1604    5.6597 H   0  0  0  0  0  0  0  0  0  0  0  0
   14.9013  -14.5485    5.0681 H   0  0  0  0  0  0  0  0  0  0  0  0
   14.2954  -15.8163    7.1290 H   0  0  0  0  0  0  0  0  0  0  0  0
   14.6295  -16.9188    5.7830 H   0  0  0  0  0  0  0  0  0  0  0  0
   13.5610  -16.2065    2.0836 H   0  0  0  0  0  0  0  0  0  0  0  0
   14.4819  -16.9959    3.3698 H   0  0  0  0  0  0  0  0  0  0  0  0
   15.9373  -15.8362    1.8033 H   0  0  0  0  0  0  0  0  0  0  0  0
   16.1172  -15.1493    3.4068 H   0  0  0  0  0  0  0  0  0  0  0  0
   14.5874  -13.2381    2.7592 H   0  0  0  0  0  0  0  0  0  0  0  0
   14.4336  -13.9168    1.1422 H   0  0  0  0  0  0  0  0  0  0  0  0
   16.8985  -13.6749    0.7842 H   0  0  0  0  0  0  0  0  0  0  0  0
   17.0726  -13.0239    2.4328 H   0  0  0  0  0  0  0  0  0  0  0  0
   15.4819   -9.4829    0.3161 H   0  0  0  0  0  0  0  0  0  0  0  0
   17.1016   -7.7772   -0.4437 H   0  0  0  0  0  0  0  0  0  0  0  0
   19.7117   -5.3593   -3.4326 H   0  0  0  0  0  0  0  0  0  0  0  0
   17.9558   -5.1322   -1.5456 H   0  0  0  0  0  0  0  0  0  0  0  0
   17.0249   -3.6593   -1.3649 H   0  0  0  0  0  0  0  0  0  0  0  0
   19.8890   -4.6584    0.2489 H   0  0  0  0  0  0  0  0  0  0  0  0
   21.2985   -4.4566    3.4635 H   0  0  0  0  0  0  0  0  0  0  0  0
   21.6529   -4.4140    1.6955 H   0  0  0  0  0  0  0  0  0  0  0  0
   21.2918   -5.9604    2.4959 H   0  0  0  0  0  0  0  0  0  0  0  0
   17.2768   -5.3656    2.7131 H   0  0  0  0  0  0  0  0  0  0  0  0
   16.1452   -7.7182    2.7649 H   0  0  0  0  0  0  0  0  0  0  0  0
   14.9647   -6.9639    1.6612 H   0  0  0  0  0  0  0  0  0  0  0  0
   15.0894   -6.4000    3.3558 H   0  0  0  0  0  0  0  0  0  0  0  0
   20.7558   -4.2287   -5.1899 H   0  0  0  0  0  0  0  0  0  0  0  0
   22.5291   -2.7299   -6.1037 H   0  0  0  0  0  0  0  0  0  0  0  0
   26.3438   -0.2239   -5.6295 H   0  0  0  0  0  0  0  0  0  0  0  0
   26.2251    2.2874   -5.4463 H   0  0  0  0  0  0  0  0  0  0  0  0
   22.4641    1.9469   -3.4102 H   0  0  0  0  0  0  0  0  0  0  0  0
   22.5695   -0.5373   -3.5857 H   0  0  0  0  0  0  0  0  0  0  0  0
   24.5554   -2.8243   -2.3236 H   0  0  0  0  0  0  0  0  0  0  0  0
   22.7899   -4.2939   -1.3962 H   0  0  0  0  0  0  0  0  0  0  0  0
   20.3181  -10.5673    0.2328 H   0  0  0  0  0  0  0  0  0  0  0  0
   18.7089  -12.2612    0.9957 H   0  0  0  0  0  0  0  0  0  0  0  0
   13.6287  -16.4772    8.7691 H   0  0  0  0  0  0  0  0  0  0  0  0
   10.7315  -15.5829    9.4454 H   0  0  0  0  0  0  0  0  0  0  0  0
   12.2560  -15.1713   10.4052 H   0  0  0  0  0  0  0  0  0  0  0  0
   11.1356  -18.0164    9.7551 H   0  0  0  0  0  0  0  0  0  0  0  0
   12.6726  -17.6650   10.7293 H   0  0  0  0  0  0  0  0  0  0  0  0
  1  2  2  0  0  0  0
  2 54  1  0  0  0  0
  3  2  1  0  0  0  0
  4 57  1  0  0  0  0
  4  3  1  0  0  0  0
  5 59  1  0  0  0  0
  5  4  1  0  0  0  0
  6  5  1  0  0  0  0
  6  7  1  0  0  0  0
  7 61  1  0  0  0  0
  7  8  1  0  0  0  0
  8  3  1  0  0  0  0
  8 63  1  0  0  0  0
  9 66  1  0  0  0  0
  9  6  1  0  0  0  0
 10  9  1  0  0  0  0
 10 68  1  0  0  0  0
 11 10  1  0  0  0  0
 11 69  1  0  0  0  0
 12 11  1  0  0  0  0
 12 72  1  0  0  0  0
 13 12  1  0  0  0  0
 14 13  1  0  0  0  0
 15 73  1  0  0  0  0
 15 14  2  0  0  0  0
 16 15  1  0  0  0  0
 17 16  2  0  0  0  0
 17 52  1  0  0  0  0
 18 17  1  0  0  0  0
 18 19  1  0  0  0  0
 19 51  2  0  0  0  0
 20 19  1  0  0  0  0
 21 22  1  1  0  0  0
 21 49  1  0  0  0  0
 21 20  1  0  0  0  0
 23 24  1  0  0  0  0
 24 25  1  0  0  0  0
 25 31  1  0  0  0  0
 25 27  1  0  0  0  0
 25 26  1  1  0  0  0
 27 28  1  0  0  0  0
 28 29  1  0  0  0  0
 28 30  2  0  0  0  0
 29 81  1  0  0  0  0
 29 79  1  0  0  0  0
 31 32  1  0  0  0  0
 32 33  1  0  0  0  0
 32 82  1  0  0  0  0
 33 83  1  0  0  0  0
 33 85  1  0  0  0  0
 34 31  2  0  0  0  0
 35 22  1  0  0  0  0
 35 48  1  0  0  0  0
 36 35  2  0  0  0  0
 37 36  1  0  0  0  0
 37 38  2  0  0  0  0
 38 47  1  0  0  0  0
 39 40  1  0  0  0  0
 39 38  1  0  0  0  0
 40 46  1  0  0  0  0
 41 42  1  0  0  0  0
 41 40  2  0  0  0  0
 42 43  2  0  0  0  0
 43 44  1  0  0  0  0
 43 45  1  0  0  0  0
 45 90  1  0  0  0  0
 46 45  2  0  0  0  0
 46 91  1  0  0  0  0
 47 48  2  0  0  0  0
 47 92  1  0  0  0  0
 48 93  1  0  0  0  0
 49 18  1  0  0  0  0
 50 49  2  0  0  0  0
 52 53  2  0  0  0  0
 53 14  1  0  0  0  0
 53 95  1  0  0  0  0
 54 96  1  0  0  0  0
 54 55  1  0  0  0  0
 54 56  1  0  0  0  0
 55 56  1  0  0  0  0
 55 98  1  0  0  0  0
 56100  1  0  0  0  0
 58  4  1  0  0  0  0
 60  5  1  0  0  0  0
 62  7  1  0  0  0  0
 64  8  1  0  0  0  0
 65  9  1  0  0  0  0
 67 10  1  0  0  0  0
 70 11  1  0  0  0  0
 71 12  1  0  0  0  0
 74 16  1  0  0  0  0
 75 22  1  0  0  0  0
 76 24  1  0  0  0  0
 77 24  1  0  0  0  0
 78 27  1  0  0  0  0
 80 29  1  0  0  0  0
 84 33  1  0  0  0  0
 86 36  1  0  0  0  0
 87 37  1  0  0  0  0
 88 41  1  0  0  0  0
 89 42  1  0  0  0  0
 94 52  1  0  0  0  0
 97 55  1  0  0  0  0
 99 56  1  0  0  0  0
M  END
