-1 1
 OpenBabel05232414493D

 97100  0  0  1  0  0  0  0  0999 V2000
   18.7828   14.2207   15.4187 C   0  0  0  0  0  0  0  0  0  0  0  0
   18.4433   15.7713   16.2452 S   0  0  0  0  0  0  0  0  0  0  0  0
   19.1880   16.8071   15.5408 O   0  0  0  0  0  0  0  0  0  0  0  0
   16.8286   16.0691   16.0019 N   0  0  0  0  0  0  0  0  0  0  0  0
   15.8641   15.2697   16.7561 C   0  0  0  0  0  0  0  0  0  0  0  0
   14.5186   16.0034   16.7779 C   0  0  0  0  0  0  0  0  0  0  0  0
   14.0414   16.3642   15.4580 N   0  0  0  0  0  0  0  0  0  0  0  0
   15.0380   17.1492   14.7594 C   0  0  0  0  0  0  0  0  0  0  0  0
   16.3973   16.4522   14.6571 C   0  0  0  0  0  0  0  0  0  0  0  0
   13.4357   15.2800   14.7013 C   0  0  0  0  0  0  0  0  0  0  0  0
   11.9934   15.0069   15.1146 C   0  0  0  0  0  0  0  0  0  0  0  0
   11.3872   13.8247   14.3656 C   0  0  0  0  0  0  0  0  0  0  0  0
    9.8932   13.6579   14.6242 C   0  0  0  0  0  0  0  0  0  0  0  0
    9.1506   14.8106   14.3112 O   0  0  0  0  0  0  0  0  0  0  0  0
    9.0481   15.2133   13.0138 C   0  0  0  0  0  0  0  0  0  0  0  0
    8.6952   16.5498   12.8052 C   0  0  0  0  0  0  0  0  0  0  0  0
    8.5423   17.0464   11.5179 C   0  0  0  0  0  0  0  0  0  0  0  0
    8.7627   16.2214   10.4097 C   0  0  0  0  0  0  0  0  0  0  0  0
    8.6298   16.7287    9.0914 N   0  0  0  0  0  0  0  0  0  0  0  0
    9.1752   17.9496    8.7291 C   0  0  0  0  0  0  0  0  0  0  0  0
    8.8180   18.2782    7.0247 S   0  0  0  0  0  0  0  0  0  0  0  0
    7.9758   16.7336    6.8303 C   0  0  2  0  0  3  0  0  0  0  0  0
    7.2980   16.2638    5.7068 C   0  0  0  0  0  3  0  0  0  0  0  0
    5.0578   17.0552    5.7953 S   0  0  0  0  0  1  0  0  0  0  0  0
    4.3742   16.8872    4.1168 C   0  0  0  0  0  0  0  0  0  0  0  0
    3.7414   15.5202    3.7749 C   0  0  2  0  0  0  0  0  0  0  0  0
    4.4631   14.7329    4.0429 H   0  0  0  0  0  0  0  0  0  0  0  0
    3.4455   15.3954    2.3625 N   0  0  0  0  0  0  0  0  0  0  0  0
    4.1529   14.5868    1.5289 C   0  0  0  0  0  0  0  0  0  0  0  0
    3.5566   14.3973    0.1470 C   0  0  0  0  0  0  0  0  0  0  0  0
    5.2054   14.0541    1.8367 O   0  0  0  0  0  0  0  0  0  0  0  0
    2.4175   15.2840    4.5231 C   0  0  0  0  0  0  0  0  0  0  0  0
    2.5324   15.1681    5.8594 N   0  0  0  0  0  0  0  0  0  0  0  0
    1.3833   15.0843    6.7237 C   0  0  0  0  0  0  0  0  0  0  0  0
    1.3559   15.2161    3.9137 O   0  0  0  0  0  0  0  0  0  0  0  0
    7.5610   16.6511    4.3031 C   0  0  0  0  0  0  0  0  0  0  0  0
    7.8051   17.9739    3.9004 C   0  0  0  0  0  0  0  0  0  0  0  0
    7.9130   18.3021    2.5530 C   0  0  0  0  0  0  0  0  0  0  0  0
    7.7818   17.3032    1.5911 C   0  0  0  0  0  0  0  0  0  0  0  0
    7.8064   17.6457    0.2503 O   0  0  0  0  0  0  0  0  0  0  0  0
    6.6270   17.6894   -0.4136 C   0  0  0  0  0  0  0  0  0  0  0  0
    6.6905   17.8242   -1.8057 C   0  0  0  0  0  0  0  0  0  0  0  0
    5.5246   17.8811   -2.5604 C   0  0  0  0  0  0  0  0  0  0  0  0
    4.2869   17.8044   -1.9216 C   0  0  0  0  0  0  0  0  0  0  0  0
    2.6898   17.8549   -2.9500 Br  0  0  0  0  0  0  0  0  0  0  0  0
    4.2130   17.6779   -0.5382 C   0  0  0  0  0  0  0  0  0  0  0  0
    5.3802   17.6184    0.2180 C   0  0  0  0  0  0  0  0  0  0  0  0
    7.5788   15.9810    1.9621 C   0  0  0  0  0  0  0  0  0  0  0  0
    7.4644   15.6661    3.3127 C   0  0  0  0  0  0  0  0  0  0  0  0
    7.9325   16.0053    8.0645 C   0  0  0  0  0  0  0  0  0  0  0  0
    7.4094   14.9259    8.2867 O   0  0  0  0  0  0  0  0  0  0  0  0
    9.8056   18.6941    9.4427 O   0  0  0  0  0  0  0  0  0  0  0  0
    9.1142   14.8880   10.6181 C   0  0  0  0  0  0  0  0  0  0  0  0
    9.2489   14.3810   11.9093 C   0  0  0  0  0  0  0  0  0  0  0  0
   18.6311   15.5493   17.6740 O   0  0  0  0  0  0  0  0  0  0  0  0
   18.5664   14.3357   14.3493 H   0  0  0  0  0  0  0  0  0  0  0  0
   18.1641   13.4361   15.8719 H   0  0  0  0  0  0  0  0  0  0  0  0
   19.8469   14.0049   15.5719 H   0  0  0  0  0  0  0  0  0  0  0  0
   16.2404   15.1345   17.7779 H   0  0  0  0  0  0  0  0  0  0  0  0
   15.7429   14.2671   16.2968 H   0  0  0  0  0  0  0  0  0  0  0  0
   14.6352   16.9218   17.3773 H   0  0  0  0  0  0  0  0  0  0  0  0
   13.7734   15.3750   17.2872 H   0  0  0  0  0  0  0  0  0  0  0  0
   15.1804   18.0995   15.3013 H   0  0  0  0  0  0  0  0  0  0  0  0
   14.6743   17.3973   13.7515 H   0  0  0  0  0  0  0  0  0  0  0  0
   17.1453   17.1302   14.2267 H   0  0  0  0  0  0  0  0  0  0  0  0
   16.3147   15.5606   14.0017 H   0  0  0  0  0  0  0  0  0  0  0  0
   14.0201   14.3344   14.7594 H   0  0  0  0  0  0  0  0  0  0  0  0
   13.4402   15.5649   13.6370 H   0  0  0  0  0  0  0  0  0  0  0  0
   11.3988   15.9134   14.9262 H   0  0  0  0  0  0  0  0  0  0  0  0
   11.9369   14.8200   16.2013 H   0  0  0  0  0  0  0  0  0  0  0  0
   11.8924   12.8855   14.6513 H   0  0  0  0  0  0  0  0  0  0  0  0
   11.5564   13.9492   13.2830 H   0  0  0  0  0  0  0  0  0  0  0  0
    9.7143   13.4900   15.6972 H   0  0  0  0  0  0  0  0  0  0  0  0
    9.5019   12.7734   14.0901 H   0  0  0  0  0  0  0  0  0  0  0  0
    8.5370   17.1888   13.6757 H   0  0  0  0  0  0  0  0  0  0  0  0
    8.2705   18.0904   11.3660 H   0  0  0  0  0  0  0  0  0  0  0  0
    6.9922   15.2235    5.8337 H   0  0  0  0  0  0  0  0  0  0  0  0
    5.1889   17.0503    3.3943 H   0  0  0  0  0  0  0  0  0  0  0  0
    3.6307   17.6834    3.9446 H   0  0  0  0  0  0  0  0  0  0  0  0
    2.4630   15.5568    2.1534 H   0  0  0  0  0  0  0  0  0  0  0  0
    2.5865   14.8943    0.0104 H   0  0  0  0  0  0  0  0  0  0  0  0
    3.4458   13.3199   -0.0388 H   0  0  0  0  0  0  0  0  0  0  0  0
    4.2646   14.7932   -0.5948 H   0  0  0  0  0  0  0  0  0  0  0  0
    3.4317   15.4692    6.2541 H   0  0  0  0  0  0  0  0  0  0  0  0
    1.1374   16.0608    7.1741 H   0  0  0  0  0  0  0  0  0  0  0  0
    1.5669   14.3650    7.5355 H   0  0  0  0  0  0  0  0  0  0  0  0
    0.5222   14.7494    6.1316 H   0  0  0  0  0  0  0  0  0  0  0  0
    7.8368   18.7727    4.6425 H   0  0  0  0  0  0  0  0  0  0  0  0
    8.0583   19.3359    2.2346 H   0  0  0  0  0  0  0  0  0  0  0  0
    7.6709   17.8767   -2.2817 H   0  0  0  0  0  0  0  0  0  0  0  0
    5.5796   17.9794   -3.6457 H   0  0  0  0  0  0  0  0  0  0  0  0
    3.2485   17.6090   -0.0330 H   0  0  0  0  0  0  0  0  0  0  0  0
    5.3068   17.5013    1.2989 H   0  0  0  0  0  0  0  0  0  0  0  0
    7.4313   15.2099    1.2053 H   0  0  0  0  0  0  0  0  0  0  0  0
    7.2320   14.6366    3.5898 H   0  0  0  0  0  0  0  0  0  0  0  0
    9.2608   14.2335    9.7602 H   0  0  0  0  0  0  0  0  0  0  0  0
    9.5129   13.3302   12.0349 H   0  0  0  0  0  0  0  0  0  0  0  0
  1 58  1  0  0  0  0
  1 57  1  0  0  0  0
  1  2  1  0  0  0  0
  2 55  2  0  0  0  0
  3  2  2  0  0  0  0
  4  2  1  0  0  0  0
  4  5  1  0  0  0  0
  5  6  1  0  0  0  0
  5 59  1  0  0  0  0
  6 62  1  0  0  0  0
  6 61  1  0  0  0  0
  7  6  1  0  0  0  0
  8 63  1  0  0  0  0
  8  7  1  0  0  0  0
  9  8  1  0  0  0  0
  9  4  1  0  0  0  0
 10 67  1  0  0  0  0
 10 11  1  0  0  0  0
 10  7  1  0  0  0  0
 11 70  1  0  0  0  0
 12 13  1  0  0  0  0
 12 71  1  0  0  0  0
 12 11  1  0  0  0  0
 13 73  1  0  0  0  0
 14 13  1  0  0  0  0
 15 14  1  0  0  0  0
 16 15  1  0  0  0  0
 16 75  1  0  0  0  0
 17 16  2  0  0  0  0
 18 53  2  0  0  0  0
 18 17  1  0  0  0  0
 19 18  1  0  0  0  0
 20 19  1  0  0  0  0
 20 52  2  0  0  0  0
 21 20  1  0  0  0  0
 22 23  1  1  0  0  0
 22 21  1  0  0  0  0
 22 50  1  0  0  0  0
 23 77  1  0  0  0  0
 25 24  1  0  0  0  0
 26 27  1  1  0  0  0
 26 25  1  0  0  0  0
 26 32  1  0  0  0  0
 28 26  1  0  0  0  0
 29 31  2  0  0  0  0
 29 28  1  0  0  0  0
 30 29  1  0  0  0  0
 32 33  1  0  0  0  0
 33 84  1  0  0  0  0
 33 34  1  0  0  0  0
 34 85  1  0  0  0  0
 34 86  1  0  0  0  0
 35 32  2  0  0  0  0
 36 23  1  0  0  0  0
 37 36  1  0  0  0  0
 37 88  1  0  0  0  0
 38 37  2  0  0  0  0
 39 48  2  0  0  0  0
 39 38  1  0  0  0  0
 40 39  1  0  0  0  0
 41 47  1  0  0  0  0
 41 40  1  0  0  0  0
 42 41  2  0  0  0  0
 43 44  2  0  0  0  0
 43 42  1  0  0  0  0
 44 46  1  0  0  0  0
 45 44  1  0  0  0  0
 46 92  1  0  0  0  0
 46 47  2  0  0  0  0
 47 93  1  0  0  0  0
 48 49  1  0  0  0  0
 49 95  1  0  0  0  0
 49 36  2  0  0  0  0
 50 51  2  0  0  0  0
 50 19  1  0  0  0  0
 53 54  1  0  0  0  0
 54 97  1  0  0  0  0
 54 15  2  0  0  0  0
 56  1  1  0  0  0  0
 60  5  1  0  0  0  0
 64  8  1  0  0  0  0
 65  9  1  0  0  0  0
 66  9  1  0  0  0  0
 68 10  1  0  0  0  0
 69 11  1  0  0  0  0
 72 12  1  0  0  0  0
 74 13  1  0  0  0  0
 76 17  1  0  0  0  0
 78 25  1  0  0  0  0
 79 25  1  0  0  0  0
 80 28  1  0  0  0  0
 81 30  1  0  0  0  0
 82 30  1  0  0  0  0
 83 30  1  0  0  0  0
 87 34  1  0  0  0  0
 89 38  1  0  0  0  0
 90 42  1  0  0  0  0
 91 43  1  0  0  0  0
 94 48  1  0  0  0  0
 96 53  1  0  0  0  0
M  END
