97
-1 1
C         9.805847   -2.165866    6.865422
S         9.547577   -0.780583    7.968700
O        10.184692    0.379674    7.359155
N         7.911098   -0.504449    7.972015
C         7.060662   -1.445764    8.699480
C         5.714981   -0.774075    8.995292
N         5.073814   -0.232359    7.814599
C         5.962025    0.687562    7.134872
C         7.311029    0.065477    6.764631
C         4.397742   -1.209525    6.975813
C         3.011136   -1.572692    7.496476
C         2.341784   -2.658767    6.660404
C         0.870593   -2.859601    7.010261
O         0.116117   -1.676757    6.907250
C        -0.008083   -1.073181    5.688575
C        -0.207446    0.308994    5.689749
C        -0.365631    1.001516    4.495537
C        -0.302939    0.327588    3.270192
N        -0.436600    1.027400    2.046775
C         0.161533    2.260235    1.842883
S        -0.211630    2.825038    0.204479
C        -1.119904    1.354803   -0.149870
C        -1.946266    1.089187   -1.343584
S        -3.673724    1.745835   -1.111312
C        -4.556509    0.797329   -2.380582
C        -4.447160   -0.739676   -2.281999
H        -3.389876   -1.033752   -2.353550
N        -5.165768   -1.349911   -3.378596
C        -4.707179   -1.405141   -4.644957
C        -5.630503   -2.069987   -5.648247
O        -3.622739   -0.954003   -4.985619
C        -5.083532   -1.299792   -0.998914
N        -4.323442   -1.341723    0.097545
C        -4.877064   -1.750113    1.365799
O        -6.253526   -1.679770   -1.032673
C        -1.349843    1.421340   -2.698547
C        -1.736869    2.520330   -3.466009
C        -1.254863    2.691598   -4.763657
C        -0.371623    1.759742   -5.292337
O         0.025588    1.870002   -6.610954
C        -0.663137    1.152182   -7.535598
C        -0.243546    1.278648   -8.865039
C        -0.894492    0.580062   -9.875545
C        -1.968579   -0.249437   -9.553365
Br        -2.860619   -1.209346  -10.933326
C        -2.390625   -0.381357   -8.234268
C        -1.742210    0.319376   -7.220327
C         0.086373    0.695517   -4.519385
C        -0.405985    0.533770   -3.230954
C        -1.193298    0.502335    0.937385
O        -1.814754   -0.582344    1.039901
O         0.847102    2.871635    2.635657
C        -0.105013   -1.055649    3.271483
C         0.032150   -1.754020    4.469177
O         9.914462   -1.221706    9.309311
H         9.458216   -1.888114    5.862618
H         9.258850   -3.033840    7.254184
H        10.883816   -2.366696    6.853865
H         7.561951   -1.723305    9.635196
H         6.901628   -2.369083    8.105303
H         5.887809    0.044192    9.714436
H         5.048865   -1.500924    9.483056
H         6.152203    1.548144    7.798481
H         5.472929    1.073624    6.228676
H         7.988445    0.828692    6.360714
H         7.164315   -0.717065    5.991715
H         4.993074   -2.138995    6.832886
H         4.282952   -0.774571    5.970094
H         2.390851   -0.663903    7.493624
H         3.072166   -1.902734    8.548344
H         2.862316   -3.623859    6.789008
H         2.425458   -2.403392    5.590945
H         0.771293   -3.167021    8.062700
H         0.434779   -3.668714    6.396328
H        -0.240718    0.830512    6.648199
H        -0.511871    2.080466    4.507536
H        -2.068345   -0.002332   -1.321246
H        -4.199914    1.089101   -3.379936
H        -5.615916    1.083108   -2.293853
H        -6.071164   -1.724108   -3.102922
H        -6.548039   -2.475486   -5.200878
H        -5.079980   -2.880009   -6.146784
H        -5.899431   -1.331754   -6.417480
H        -3.359015   -0.973728    0.150493
H        -5.751691   -1.137578    1.636582
H        -4.094161   -1.621374    2.123089
H        -5.201789   -2.802892    1.343742
H        -2.466968    3.220901   -3.055139
H        -1.589972    3.523052   -5.386508
H         0.599964    1.933805   -9.088734
H        -0.565442    0.680951  -10.911085
H        -3.225337   -1.030045   -7.964457
H        -2.099028    0.187038   -6.197265
H         0.786669   -0.020589   -4.953452
H        -0.077557   -0.315194   -2.625765
H        -0.090209   -1.588922    2.322584
H         0.174679   -2.835309    4.434553
