-1 1
 OpenBabel05232413493D

 97100  0  0  1  0  0  0  0  0999 V2000
   10.0659   -3.6356    9.2297 C   0  0  0  0  0  0  0  0  0  0  0  0
   10.3265   -1.9172    9.6549 S   0  0  0  0  0  0  0  0  0  0  0  0
   11.3757   -1.4105    8.7800 O   0  0  0  0  0  0  0  0  0  0  0  0
    8.9216   -1.1323    9.2461 N   0  0  0  0  0  0  0  0  0  0  0  0
    7.7495   -1.3335   10.0960 C   0  0  0  0  0  0  0  0  0  0  0  0
    6.7692   -0.1769    9.8723 C   0  0  0  0  0  0  0  0  0  0  0  0
    6.4268    0.0236    8.4777 N   0  0  0  0  0  0  0  0  0  0  0  0
    7.6263    0.2087    7.6865 C   0  0  0  0  0  0  0  0  0  0  0  0
    8.6295   -0.9394    7.8262 C   0  0  0  0  0  0  0  0  0  0  0  0
    5.4453   -0.9044    7.9404 C   0  0  0  0  0  0  0  0  0  0  0  0
    4.0159   -0.5382    8.3269 C   0  0  0  0  0  0  0  0  0  0  0  0
    2.9934   -1.5358    7.7929 C   0  0  0  0  0  0  0  0  0  0  0  0
    1.5524   -1.1095    8.0518 C   0  0  0  0  0  0  0  0  0  0  0  0
    1.2492    0.1556    7.5109 O   0  0  0  0  0  0  0  0  0  0  0  0
    1.1339    0.3135    6.1696 C   0  0  0  0  0  0  0  0  0  0  0  0
    1.1078    1.6350    5.7072 C   0  0  0  0  0  0  0  0  0  0  0  0
    0.9669    1.9049    4.3544 C   0  0  0  0  0  0  0  0  0  0  0  0
    0.8708    0.8565    3.4352 C   0  0  0  0  0  0  0  0  0  0  0  0
    0.7408    1.1296    2.0424 N   0  0  0  0  0  0  0  0  0  0  0  0
    1.6218    1.9858    1.3914 C   0  0  0  0  0  0  0  0  0  0  0  0
    1.1965    2.1116   -0.3335 S   0  0  0  0  0  0  0  0  0  0  0  0
   -0.1519    0.9771   -0.1548 C   0  0  0  0  0  0  0  0  0  0  0  0
   -0.9571    0.4904   -1.1175 C   0  0  0  0  0  0  0  0  0  0  0  0
   -4.3263   -1.1219   -1.8984 S   0  0  0  0  0  1  0  0  0  0  0  0
   -4.8117   -0.7567   -3.6235 C   0  0  0  0  0  0  0  0  0  0  0  0
   -5.3589   -1.9648   -4.4156 C   0  0  2  0  0  0  0  0  0  0  0  0
   -4.6740   -2.8092   -4.2251 H   0  0  0  0  0  0  0  0  0  0  0  0
   -5.4308   -1.7217   -5.8430 N   0  0  0  0  0  0  0  0  0  0  0  0
   -4.3799   -1.8432   -6.6778 C   0  0  0  0  0  0  0  0  0  0  0  0
   -4.7008   -1.7446   -8.1575 C   0  0  0  0  0  0  0  0  0  0  0  0
   -3.2313   -2.0326   -6.2987 O   0  0  0  0  0  0  0  0  0  0  0  0
   -6.7821   -2.3679   -3.9934 C   0  0  0  0  0  0  0  0  0  0  0  0
   -6.9301   -2.6162   -2.6833 N   0  0  0  0  0  0  0  0  0  0  0  0
   -8.2106   -2.8982   -2.0945 C   0  0  0  0  0  0  0  0  0  0  0  0
   -7.6886   -2.4435   -4.8217 O   0  0  0  0  0  0  0  0  0  0  0  0
   -0.9550    0.8059   -2.5469 C   0  0  0  0  0  0  0  0  0  0  0  0
   -0.5975    2.0620   -3.0615 C   0  0  0  0  0  0  0  0  0  0  0  0
   -0.7028    2.3243   -4.4244 C   0  0  0  0  0  0  0  0  0  0  0  0
   -1.1419    1.3177   -5.2808 C   0  0  0  0  0  0  0  0  0  0  0  0
   -1.2633    1.6115   -6.6212 O   0  0  0  0  0  0  0  0  0  0  0  0
   -2.4910    1.6062   -7.1991 C   0  0  0  0  0  0  0  0  0  0  0  0
   -2.5220    1.7194   -8.5935 C   0  0  0  0  0  0  0  0  0  0  0  0
   -3.7369    1.7596   -9.2676 C   0  0  0  0  0  0  0  0  0  0  0  0
   -4.9260    1.6774   -8.5442 C   0  0  0  0  0  0  0  0  0  0  0  0
   -6.5872    1.6871   -9.4656 Br  0  0  0  0  0  0  0  0  0  0  0  0
   -4.9061    1.5592   -7.1584 C   0  0  0  0  0  0  0  0  0  0  0  0
   -3.6890    1.5298   -6.4824 C   0  0  0  0  0  0  0  0  0  0  0  0
   -1.4561    0.0471   -4.8033 C   0  0  0  0  0  0  0  0  0  0  0  0
   -1.3874   -0.1918   -3.4368 C   0  0  0  0  0  0  0  0  0  0  0  0
   -0.2672    0.5269    1.2549 C   0  0  0  0  0  0  0  0  0  0  0  0
   -1.0715   -0.2491    1.6980 O   0  0  0  0  0  0  0  0  0  0  0  0
    2.5397    2.5739    1.8953 O   0  0  0  0  0  0  0  0  0  0  0  0
    0.8986   -0.4585    3.8903 C   0  0  0  0  0  0  0  0  0  0  0  0
    1.0216   -0.7347    5.2507 C   0  0  0  0  0  0  0  0  0  0  0  0
   10.4539   -1.8450   11.1052 O   0  0  0  0  0  0  0  0  0  0  0  0
    9.8787   -3.7080    8.1511 H   0  0  0  0  0  0  0  0  0  0  0  0
    9.2185   -4.0189    9.8118 H   0  0  0  0  0  0  0  0  0  0  0  0
   10.9851   -4.1719    9.4944 H   0  0  0  0  0  0  0  0  0  0  0  0
    8.0735   -1.3594   11.1440 H   0  0  0  0  0  0  0  0  0  0  0  0
    7.2578   -2.3003    9.8624 H   0  0  0  0  0  0  0  0  0  0  0  0
    7.2300    0.7467   10.2606 H   0  0  0  0  0  0  0  0  0  0  0  0
    5.8576   -0.3571   10.4604 H   0  0  0  0  0  0  0  0  0  0  0  0
    8.1225    1.1382    8.0131 H   0  0  0  0  0  0  0  0  0  0  0  0
    7.3556    0.3352    6.6279 H   0  0  0  0  0  0  0  0  0  0  0  0
    9.5637   -0.6984    7.3031 H   0  0  0  0  0  0  0  0  0  0  0  0
    8.2082   -1.8648    7.3815 H   0  0  0  0  0  0  0  0  0  0  0  0
    5.6441   -1.9609    8.2288 H   0  0  0  0  0  0  0  0  0  0  0  0
    5.5224   -0.8793    6.8414 H   0  0  0  0  0  0  0  0  0  0  0  0
    3.7961    0.4682    7.9400 H   0  0  0  0  0  0  0  0  0  0  0  0
    3.9229   -0.4740    9.4250 H   0  0  0  0  0  0  0  0  0  0  0  0
    3.1430   -2.5266    8.2559 H   0  0  0  0  0  0  0  0  0  0  0  0
    3.1463   -1.6765    6.7098 H   0  0  0  0  0  0  0  0  0  0  0  0
    1.3828   -0.9999    9.1334 H   0  0  0  0  0  0  0  0  0  0  0  0
    0.8432   -1.8742    7.6893 H   0  0  0  0  0  0  0  0  0  0  0  0
    1.1923    2.4424    6.4361 H   0  0  0  0  0  0  0  0  0  0  0  0
    0.9465    2.9369    4.0036 H   0  0  0  0  0  0  0  0  0  0  0  0
   -1.7110   -0.2450   -0.8025 H   0  0  0  0  0  0  0  0  0  0  0  0
   -3.9315   -0.4123   -4.1845 H   0  0  0  0  0  0  0  0  0  0  0  0
   -5.5603    0.0554   -3.6647 H   0  0  0  0  0  0  0  0  0  0  0  0
   -6.3830   -1.7494   -6.2029 H   0  0  0  0  0  0  0  0  0  0  0  0
   -5.7230   -1.3990   -8.3646 H   0  0  0  0  0  0  0  0  0  0  0  0
   -4.5543   -2.7354   -8.6131 H   0  0  0  0  0  0  0  0  0  0  0  0
   -3.9836   -1.0540   -8.6213 H   0  0  0  0  0  0  0  0  0  0  0  0
   -6.1289   -2.3315   -2.0834 H   0  0  0  0  0  0  0  0  0  0  0  0
   -8.5935   -2.0362   -1.5219 H   0  0  0  0  0  0  0  0  0  0  0  0
   -8.1449   -3.7595   -1.4109 H   0  0  0  0  0  0  0  0  0  0  0  0
   -8.9252   -3.1291   -2.8954 H   0  0  0  0  0  0  0  0  0  0  0  0
   -0.2982    2.8706   -2.3912 H   0  0  0  0  0  0  0  0  0  0  0  0
   -0.4735    3.3102   -4.8319 H   0  0  0  0  0  0  0  0  0  0  0  0
   -1.5765    1.7748   -9.1349 H   0  0  0  0  0  0  0  0  0  0  0  0
   -3.7573    1.8441  -10.3553 H   0  0  0  0  0  0  0  0  0  0  0  0
   -5.8337    1.4706   -6.5913 H   0  0  0  0  0  0  0  0  0  0  0  0
   -3.6864    1.4252   -5.3975 H   0  0  0  0  0  0  0  0  0  0  0  0
   -1.8309   -0.7271   -5.4793 H   0  0  0  0  0  0  0  0  0  0  0  0
   -1.7310   -1.1500   -3.0400 H   0  0  0  0  0  0  0  0  0  0  0  0
    0.8050   -1.2795    3.1797 H   0  0  0  0  0  0  0  0  0  0  0  0
    1.0264   -1.7755    5.5743 H   0  0  0  0  0  0  0  0  0  0  0  0
  1 58  1  0  0  0  0
  1  2  1  0  0  0  0
  1 57  1  0  0  0  0
  2 55  2  0  0  0  0
  3  2  2  0  0  0  0
  4  2  1  0  0  0  0
  4  5  1  0  0  0  0
  5 59  1  0  0  0  0
  6  5  1  0  0  0  0
  6 61  1  0  0  0  0
  6 62  1  0  0  0  0
  7  6  1  0  0  0  0
  8  9  1  0  0  0  0
  8 63  1  0  0  0  0
  8  7  1  0  0  0  0
  9  4  1  0  0  0  0
 10 67  1  0  0  0  0
 10 11  1  0  0  0  0
 10  7  1  0  0  0  0
 11 70  1  0  0  0  0
 12 13  1  0  0  0  0
 12 71  1  0  0  0  0
 12 11  1  0  0  0  0
 13 73  1  0  0  0  0
 14 13  1  0  0  0  0
 15 14  1  0  0  0  0
 16 15  1  0  0  0  0
 16 75  1  0  0  0  0
 17 16  2  0  0  0  0
 18 53  2  0  0  0  0
 18 17  1  0  0  0  0
 19 18  1  0  0  0  0
 20 52  2  0  0  0  0
 20 19  1  0  0  0  0
 21 22  1  0  0  0  0
 21 20  1  0  0  0  0
 22 50  1  0  0  0  0
 23 77  1  0  0  0  0
 23 22  2  0  0  0  0
 25 24  1  0  0  0  0
 26 27  1  1  0  0  0
 26 32  1  0  0  0  0
 26 25  1  0  0  0  0
 28 26  1  0  0  0  0
 29 31  2  0  0  0  0
 29 28  1  0  0  0  0
 30 29  1  0  0  0  0
 32 33  1  0  0  0  0
 33 34  1  0  0  0  0
 33 84  1  0  0  0  0
 34 85  1  0  0  0  0
 34 86  1  0  0  0  0
 35 32  2  0  0  0  0
 36 23  1  0  0  0  0
 37 36  1  0  0  0  0
 37 88  1  0  0  0  0
 38 37  2  0  0  0  0
 39 48  2  0  0  0  0
 39 38  1  0  0  0  0
 40 39  1  0  0  0  0
 41 40  1  0  0  0  0
 41 47  1  0  0  0  0
 42 41  2  0  0  0  0
 43 42  1  0  0  0  0
 43 44  2  0  0  0  0
 44 46  1  0  0  0  0
 45 44  1  0  0  0  0
 46 92  1  0  0  0  0
 46 47  2  0  0  0  0
 47 93  1  0  0  0  0
 48 49  1  0  0  0  0
 49 95  1  0  0  0  0
 49 36  2  0  0  0  0
 50 51  2  0  0  0  0
 50 19  1  0  0  0  0
 53 54  1  0  0  0  0
 54 97  1  0  0  0  0
 54 15  2  0  0  0  0
 56  1  1  0  0  0  0
 60  5  1  0  0  0  0
 64  8  1  0  0  0  0
 65  9  1  0  0  0  0
 66  9  1  0  0  0  0
 68 10  1  0  0  0  0
 69 11  1  0  0  0  0
 72 12  1  0  0  0  0
 74 13  1  0  0  0  0
 76 17  1  0  0  0  0
 78 25  1  0  0  0  0
 79 25  1  0  0  0  0
 80 28  1  0  0  0  0
 81 30  1  0  0  0  0
 82 30  1  0  0  0  0
 83 30  1  0  0  0  0
 87 34  1  0  0  0  0
 89 38  1  0  0  0  0
 90 42  1  0  0  0  0
 91 43  1  0  0  0  0
 94 48  1  0  0  0  0
 96 53  1  0  0  0  0
M  END
