97
-1 1
C        18.782762   14.220719   15.418704
S        18.443274   15.771294   16.245245
O        19.187955   16.807081   15.540841
N        16.828594   16.069128   16.001948
C        15.864105   15.269662   16.756127
C        14.518595   16.003379   16.777859
N        14.041399   16.364178   15.457993
C        15.037957   17.149231   14.759362
C        16.397336   16.452202   14.657109
C        13.435747   15.280005   14.701332
C        11.993395   15.006874   15.114609
C        11.387247   13.824720   14.365563
C         9.893211   13.657867   14.624153
O         9.150564   14.810641   14.311157
C         9.048059   15.213269   13.013756
C         8.695195   16.549846   12.805217
C         8.542300   17.046428   11.517858
C         8.762746   16.221390   10.409720
N         8.629839   16.728731    9.091366
C         9.175158   17.949586    8.729068
S         8.817954   18.278233    7.024709
C         7.975798   16.733625    6.830259
C         7.298023   16.263833    5.706763
S         5.057792   17.055233    5.795305
C         4.374249   16.887203    4.116824
C         3.741352   15.520200    3.774928
H         4.463150   14.732896    4.042937
N         3.445476   15.395361    2.362502
C         4.152948   14.586765    1.528884
C         3.556552   14.397321    0.146998
O         5.205437   14.054069    1.836660
C         2.417491   15.284007    4.523129
N         2.532364   15.168057    5.859363
C         1.383256   15.084274    6.723725
O         1.355942   15.216109    3.913679
C         7.560983   16.651087    4.303077
C         7.805103   17.973855    3.900393
C         7.913007   18.302129    2.553035
C         7.781801   17.303218    1.591148
O         7.806367   17.645709    0.250267
C         6.627002   17.689360   -0.413621
C         6.690468   17.824226   -1.805707
C         5.524579   17.881144   -2.560389
C         4.286909   17.804407   -1.921584
Br         2.689806   17.854928   -2.949966
C         4.213043   17.677909   -0.538237
C         5.380228   17.618382    0.218031
C         7.578844   15.980963    1.962107
C         7.464429   15.666097    3.312695
C         7.932546   16.005302    8.064502
O         7.409447   14.925875    8.286694
O         9.805617   18.694056    9.442699
C         9.114239   14.887972   10.618097
C         9.248923   14.380958   11.909344
O        18.631091   15.549278   17.674009
H        18.566356   14.335719   14.349325
H        18.164114   13.436115   15.871896
H        19.846934   14.004895   15.571904
H        16.240378   15.134467   17.777913
H        15.742927   14.267057   16.296831
H        14.635205   16.921773   17.377322
H        13.773386   15.374977   17.287175
H        15.180371   18.099534   15.301273
H        14.674269   17.397269   13.751468
H        17.145340   17.130220   14.226655
H        16.314713   15.560573   14.001688
H        14.020102   14.334375   14.759362
H        13.440244   15.564947   13.636992
H        11.398811   15.913398   14.926230
H        11.936857   14.819990   16.201290
H        11.892357   12.885472   14.651271
H        11.556363   13.949214   13.283022
H         9.714299   13.490031   15.697216
H         9.501858   12.773366   14.090147
H         8.536951   17.188830   13.675729
H         8.270458   18.090396   11.366038
H         6.992200   15.223489    5.833687
H         5.188888   17.050320    3.394317
H         3.630726   17.683408    3.944612
H         2.463031   15.556832    2.153365
H         2.586479   14.894323    0.010411
H         3.445763   13.319882   -0.038776
H         4.264592   14.793219   -0.594837
H         3.431721   15.469242    6.254126
H         1.137413   16.060840    7.174070
H         1.566895   14.364967    7.535533
H         0.522171   14.749405    6.131642
H         7.836845   18.772666    4.642533
H         8.058288   19.335921    2.234650
H         7.670853   17.876676   -2.281704
H         5.579566   17.979379   -3.645747
H         3.248480   17.609008   -0.033005
H         5.306818   17.501256    1.298880
H         7.431292   15.209876    1.205296
H         7.231957   14.636551    3.589751
H         9.260803   14.233532    9.760240
H         9.512908   13.330225   12.034885
