-1 1
 OpenBabel05232413493D

104107  0  0  1  0  0  0  0  0999 V2000
    3.4224  -14.1911   10.5809 C   0  0  0  0  0  0  0  0  0  0  0  0
    3.8924  -12.9259   10.2413 O   0  0  0  0  0  0  0  0  0  0  0  0
    3.3303  -12.4145    9.0674 C   0  0  0  0  0  0  0  0  0  0  0  0
    3.9081  -11.0399    8.7926 C   0  0  0  0  0  0  0  0  0  0  0  0
    3.3026  -10.3921    7.5508 C   0  0  0  0  0  0  0  0  0  0  0  0
    3.9056   -9.1087    7.2386 N   0  0  0  0  0  0  0  0  0  0  0  0
    3.8093   -8.7099    5.8403 C   0  0  0  0  0  0  0  0  0  0  0  0
    2.4229   -8.1645    5.4766 C   0  0  0  0  0  0  0  0  0  0  0  0
    2.0125   -7.0621    6.3343 N   0  0  0  0  0  0  0  0  0  0  0  0
    2.1133   -7.4441    7.7374 C   0  0  0  0  0  0  0  0  0  0  0  0
    3.4940   -8.0089    8.1044 C   0  0  0  0  0  0  0  0  0  0  0  0
    2.5958   -5.7713    6.0101 C   0  0  0  0  0  0  0  0  0  0  0  0
    1.6938   -4.6026    6.3989 C   0  0  0  0  0  0  0  0  0  0  0  0
    2.2837   -3.2518    6.0097 C   0  0  0  0  0  0  0  0  0  0  0  0
    1.3877   -2.0891    6.4185 C   0  0  0  0  0  0  0  0  0  0  0  0
    1.9219   -0.8359    6.0685 O   0  0  0  0  0  0  0  0  0  0  0  0
    1.8452   -0.3941    4.7897 C   0  0  0  0  0  0  0  0  0  0  0  0
    2.4812    0.8255    4.5243 C   0  0  0  0  0  0  0  0  0  0  0  0
    2.4426    1.3788    3.2540 C   0  0  0  0  0  0  0  0  0  0  0  0
    1.7824    0.7133    2.2172 C   0  0  0  0  0  0  0  0  0  0  0  0
    1.7474    1.2763    0.9094 N   0  0  0  0  0  0  0  0  0  0  0  0
    2.9144    1.6767    0.2658 C   0  0  0  0  0  0  0  0  0  0  0  0
    2.5280    2.3540   -1.3339 S   0  0  0  0  0  0  0  0  0  0  0  0
    0.8027    2.0547   -1.1152 C   0  0  0  0  0  0  0  0  0  0  0  0
   -0.2186    2.3272   -1.9549 C   0  0  0  0  0  0  0  0  0  0  0  0
   -1.3301    5.2021   -1.0368 S   0  0  0  0  0  1  0  0  0  0  0  0
   -2.3221    5.3885   -2.5512 C   0  0  0  0  0  0  0  0  0  0  0  0
   -3.6645    4.5926   -2.5497 C   0  0  2  0  0  0  0  0  0  0  0  0
   -4.4341    5.2111   -2.0480 H   0  0  0  0  0  0  0  0  0  0  0  0
   -3.4675    3.3805   -1.7707 N   0  0  0  0  0  0  0  0  0  0  0  0
   -4.3881    2.5013   -1.3382 C   0  0  0  0  0  0  0  0  0  0  0  0
   -3.9682    1.6609   -0.1502 C   0  0  0  0  0  0  0  0  0  0  0  0
   -5.5038    2.3550   -1.8445 O   0  0  0  0  0  0  0  0  0  0  0  0
   -4.1523    4.4360   -3.9945 C   0  0  0  0  0  0  0  0  0  0  0  0
   -4.7810    3.2852   -4.3218 N   0  0  0  0  0  0  0  0  0  0  0  0
   -5.3458    3.1231   -5.6373 C   0  0  0  0  0  0  0  0  0  0  0  0
   -3.9847    5.3432   -4.8021 O   0  0  0  0  0  0  0  0  0  0  0  0
   -0.1952    2.8372   -3.3225 C   0  0  0  0  0  0  0  0  0  0  0  0
   -1.2570    2.4949   -4.1742 C   0  0  0  0  0  0  0  0  0  0  0  0
   -1.2877    2.9110   -5.4998 C   0  0  0  0  0  0  0  0  0  0  0  0
   -0.2583    3.7175   -5.9853 C   0  0  0  0  0  0  0  0  0  0  0  0
   -0.1928    4.1281   -7.2906 O   0  0  0  0  0  0  0  0  0  0  0  0
   -1.3122    4.5099   -7.9671 C   0  0  0  0  0  0  0  0  0  0  0  0
   -1.3267    4.2822   -9.3452 C   0  0  0  0  0  0  0  0  0  0  0  0
   -2.4214    4.6815  -10.1063 C   0  0  0  0  0  0  0  0  0  0  0  0
   -3.5021    5.2948   -9.4765 C   0  0  0  0  0  0  0  0  0  0  0  0
   -4.8946    5.7743  -10.4317 Cl  0  0  0  0  0  0  0  0  0  0  0  0
   -3.4945    5.5247   -8.1038 C   0  0  0  0  0  0  0  0  0  0  0  0
   -2.3903    5.1432   -7.3474 C   0  0  0  0  0  0  0  0  0  0  0  0
    0.7875    4.1031   -5.1458 C   0  0  0  0  0  0  0  0  0  0  0  0
    0.8204    3.6623   -3.8296 C   0  0  0  0  0  0  0  0  0  0  0  0
    0.5393    1.4478    0.1993 C   0  0  0  0  0  0  0  0  0  0  0  0
   -0.5350    1.1119    0.6402 O   0  0  0  0  0  0  0  0  0  0  0  0
    4.0290    1.5916    0.7065 O   0  0  0  0  0  0  0  0  0  0  0  0
    1.1537   -0.5008    2.4751 C   0  0  0  0  0  0  0  0  0  0  0  0
    1.1753   -1.0543    3.7544 C   0  0  0  0  0  0  0  0  0  0  0  0
    3.9189  -14.5004   11.5108 H   0  0  0  0  0  0  0  0  0  0  0  0
    3.6460  -14.9425    9.7970 H   0  0  0  0  0  0  0  0  0  0  0  0
    2.3265  -14.1965   10.7494 H   0  0  0  0  0  0  0  0  0  0  0  0
    2.2244  -12.3531    9.1628 H   0  0  0  0  0  0  0  0  0  0  0  0
    3.5327  -13.0945    8.2117 H   0  0  0  0  0  0  0  0  0  0  0  0
    4.9985  -11.1157    8.6642 H   0  0  0  0  0  0  0  0  0  0  0  0
    3.7354  -10.4167    9.6843 H   0  0  0  0  0  0  0  0  0  0  0  0
    2.1969  -10.3440    7.6691 H   0  0  0  0  0  0  0  0  0  0  0  0
    3.4785  -11.0578    6.6892 H   0  0  0  0  0  0  0  0  0  0  0  0
    4.0744   -9.5656    5.1988 H   0  0  0  0  0  0  0  0  0  0  0  0
    4.5670   -7.9275    5.6538 H   0  0  0  0  0  0  0  0  0  0  0  0
    1.6762   -8.9739    5.5744 H   0  0  0  0  0  0  0  0  0  0  0  0
    2.3955   -7.8374    4.4253 H   0  0  0  0  0  0  0  0  0  0  0  0
    1.3360   -8.2008    7.9455 H   0  0  0  0  0  0  0  0  0  0  0  0
    1.8760   -6.5789    8.3750 H   0  0  0  0  0  0  0  0  0  0  0  0
    3.5054   -8.3377    9.1545 H   0  0  0  0  0  0  0  0  0  0  0  0
    4.2525   -7.2105    8.0239 H   0  0  0  0  0  0  0  0  0  0  0  0
    2.7533   -5.7362    4.9198 H   0  0  0  0  0  0  0  0  0  0  0  0
    3.6006   -5.6161    6.4608 H   0  0  0  0  0  0  0  0  0  0  0  0
    1.5049   -4.6201    7.4865 H   0  0  0  0  0  0  0  0  0  0  0  0
    0.7139   -4.7506    5.9154 H   0  0  0  0  0  0  0  0  0  0  0  0
    2.4565   -3.2191    4.9212 H   0  0  0  0  0  0  0  0  0  0  0  0
    3.2699   -3.1107    6.4825 H   0  0  0  0  0  0  0  0  0  0  0  0
    1.2856   -2.0653    7.5140 H   0  0  0  0  0  0  0  0  0  0  0  0
    0.3695   -2.2127    6.0066 H   0  0  0  0  0  0  0  0  0  0  0  0
    2.9954    1.3315    5.3428 H   0  0  0  0  0  0  0  0  0  0  0  0
    2.9348    2.3315    3.0576 H   0  0  0  0  0  0  0  0  0  0  0  0
   -1.1930    1.9945   -1.5924 H   0  0  0  0  0  0  0  0  0  0  0  0
   -1.7342    5.0578   -3.4222 H   0  0  0  0  0  0  0  0  0  0  0  0
   -2.5724    6.4407   -2.7385 H   0  0  0  0  0  0  0  0  0  0  0  0
   -2.6379    3.5518   -1.1593 H   0  0  0  0  0  0  0  0  0  0  0  0
   -4.3855    0.6519   -0.2642 H   0  0  0  0  0  0  0  0  0  0  0  0
   -4.4119    2.1075    0.7531 H   0  0  0  0  0  0  0  0  0  0  0  0
   -2.8808    1.6091    0.0001 H   0  0  0  0  0  0  0  0  0  0  0  0
   -5.1715    2.7525   -3.5329 H   0  0  0  0  0  0  0  0  0  0  0  0
   -6.1963    3.8036   -5.8213 H   0  0  0  0  0  0  0  0  0  0  0  0
   -5.6920    2.0875   -5.7564 H   0  0  0  0  0  0  0  0  0  0  0  0
   -4.5910    3.3354   -6.4089 H   0  0  0  0  0  0  0  0  0  0  0  0
   -2.0911    1.9084   -3.7843 H   0  0  0  0  0  0  0  0  0  0  0  0
   -2.1241    2.6306   -6.1414 H   0  0  0  0  0  0  0  0  0  0  0  0
   -0.4704    3.7884   -9.8073 H   0  0  0  0  0  0  0  0  0  0  0  0
   -2.4409    4.5069  -11.1830 H   0  0  0  0  0  0  0  0  0  0  0  0
   -4.3408    5.9910   -7.5976 H   0  0  0  0  0  0  0  0  0  0  0  0
   -2.4166    5.3257   -6.2710 H   0  0  0  0  0  0  0  0  0  0  0  0
    1.5614    4.7633   -5.5398 H   0  0  0  0  0  0  0  0  0  0  0  0
    1.6137    4.0196   -3.1717 H   0  0  0  0  0  0  0  0  0  0  0  0
    0.6250   -1.0156    1.6731 H   0  0  0  0  0  0  0  0  0  0  0  0
    0.6657   -2.0032    3.9216 H   0  0  0  0  0  0  0  0  0  0  0  0
  1 59  1  0  0  0  0
  1 57  1  0  0  0  0
  2  1  1  0  0  0  0
  3 60  1  0  0  0  0
  3  2  1  0  0  0  0
  4  3  1  0  0  0  0
  4 63  1  0  0  0  0
  5 64  1  0  0  0  0
  5  4  1  0  0  0  0
  6  5  1  0  0  0  0
  6 11  1  0  0  0  0
  7  6  1  0  0  0  0
  8 68  1  0  0  0  0
  8  7  1  0  0  0  0
  8  9  1  0  0  0  0
  9 10  1  0  0  0  0
 10 70  1  0  0  0  0
 10 11  1  0  0  0  0
 10 71  1  0  0  0  0
 11 72  1  0  0  0  0
 12  9  1  0  0  0  0
 12 13  1  0  0  0  0
 12 75  1  0  0  0  0
 13 76  1  0  0  0  0
 14 13  1  0  0  0  0
 14 15  1  0  0  0  0
 14 79  1  0  0  0  0
 15 80  1  0  0  0  0
 16 15  1  0  0  0  0
 17 16  1  0  0  0  0
 18 17  1  0  0  0  0
 18 82  1  0  0  0  0
 19 18  2  0  0  0  0
 20 55  2  0  0  0  0
 20 19  1  0  0  0  0
 21 20  1  0  0  0  0
 22 54  2  0  0  0  0
 22 21  1  0  0  0  0
 23 24  1  0  0  0  0
 23 22  1  0  0  0  0
 24 52  1  0  0  0  0
 25 84  1  0  0  0  0
 25 24  2  0  0  0  0
 27 28  1  0  0  0  0
 27 26  1  0  0  0  0
 28 29  1  1  0  0  0
 28 30  1  0  0  0  0
 30 31  1  0  0  0  0
 30 87  1  0  0  0  0
 31 32  1  0  0  0  0
 32 90  1  0  0  0  0
 32 89  1  0  0  0  0
 33 31  2  0  0  0  0
 34 28  1  0  0  0  0
 35 34  1  0  0  0  0
 35 91  1  0  0  0  0
 36 35  1  0  0  0  0
 37 34  2  0  0  0  0
 38 25  1  0  0  0  0
 39 95  1  0  0  0  0
 39 38  2  0  0  0  0
 40 39  1  0  0  0  0
 41 40  2  0  0  0  0
 41 50  1  0  0  0  0
 42 41  1  0  0  0  0
 43 49  1  0  0  0  0
 43 42  1  0  0  0  0
 44 43  2  0  0  0  0
 45 46  2  0  0  0  0
 45 44  1  0  0  0  0
 46 48  1  0  0  0  0
 47 46  1  0  0  0  0
 48 99  1  0  0  0  0
 48 49  2  0  0  0  0
 49100  1  0  0  0  0
 50 51  2  0  0  0  0
 51 38  1  0  0  0  0
 51102  1  0  0  0  0
 52 53  2  0  0  0  0
 52 21  1  0  0  0  0
 55 56  1  0  0  0  0
 56104  1  0  0  0  0
 56 17  2  0  0  0  0
 58  1  1  0  0  0  0
 61  3  1  0  0  0  0
 62  4  1  0  0  0  0
 65  5  1  0  0  0  0
 66  7  1  0  0  0  0
 67  7  1  0  0  0  0
 69  8  1  0  0  0  0
 73 11  1  0  0  0  0
 74 12  1  0  0  0  0
 77 13  1  0  0  0  0
 78 14  1  0  0  0  0
 81 15  1  0  0  0  0
 83 19  1  0  0  0  0
 85 27  1  0  0  0  0
 86 27  1  0  0  0  0
 88 32  1  0  0  0  0
 92 36  1  0  0  0  0
 93 36  1  0  0  0  0
 94 36  1  0  0  0  0
 96 40  1  0  0  0  0
 97 44  1  0  0  0  0
 98 45  1  0  0  0  0
101 50  1  0  0  0  0
103 55  1  0  0  0  0
M  END
