-1 1
 OpenBabel05232414493D

104107  0  0  1  0  0  0  0  0999 V2000
   21.6806   -2.9354   17.6041 C   0  0  0  0  0  0  0  0  0  0  0  0
   22.1855   -1.6750   17.2987 O   0  0  0  0  0  0  0  0  0  0  0  0
   21.5997   -1.0942   16.1693 C   0  0  0  0  0  0  0  0  0  0  0  0
   22.2181    0.2689   15.9283 C   0  0  0  0  0  0  0  0  0  0  0  0
   21.5910    0.9899   14.7386 C   0  0  0  0  0  0  0  0  0  0  0  0
   22.2286    2.2635   14.4570 N   0  0  0  0  0  0  0  0  0  0  0  0
   22.0930    2.7259   13.0815 C   0  0  0  0  0  0  0  0  0  0  0  0
   20.7139    3.3331   12.7969 C   0  0  0  0  0  0  0  0  0  0  0  0
   20.3761    4.4100   13.7160 N   0  0  0  0  0  0  0  0  0  0  0  0
   20.5173    3.9653   15.0966 C   0  0  0  0  0  0  0  0  0  0  0  0
   21.8903    3.3385   15.3839 C   0  0  0  0  0  0  0  0  0  0  0  0
   20.9895    5.6950   13.4239 C   0  0  0  0  0  0  0  0  0  0  0  0
   20.1367    6.8735   13.8861 C   0  0  0  0  0  0  0  0  0  0  0  0
   20.7602    8.2211   13.5409 C   0  0  0  0  0  0  0  0  0  0  0  0
   19.9054    9.3925   14.0098 C   0  0  0  0  0  0  0  0  0  0  0  0
   20.4701   10.6419   13.7044 O   0  0  0  0  0  0  0  0  0  0  0  0
   20.3898   11.1344   12.4405 C   0  0  0  0  0  0  0  0  0  0  0  0
   21.0608   12.3405   12.2082 C   0  0  0  0  0  0  0  0  0  0  0  0
   21.0214   12.9417   10.9588 C   0  0  0  0  0  0  0  0  0  0  0  0
   20.3252   12.3393    9.9052 C   0  0  0  0  0  0  0  0  0  0  0  0
   20.2873   12.9462    8.6214 N   0  0  0  0  0  0  0  0  0  0  0  0
   21.4352   13.4448    8.0223 C   0  0  0  0  0  0  0  0  0  0  0  0
   21.0296   14.1422    6.4412 S   0  0  0  0  0  0  0  0  0  0  0  0
   19.3275   13.7028    6.6138 C   0  0  2  0  0  3  0  0  0  0  0  0
   18.2697   13.9979    5.7666 C   0  0  0  0  0  3  0  0  0  0  0  0
   17.3212   16.1682    6.4250 S   0  0  0  0  0  1  0  0  0  0  0  0
   16.1672   16.4866    5.0606 C   0  0  0  0  0  0  0  0  0  0  0  0
   14.8196   15.6934    5.0973 C   0  0  2  0  0  0  0  0  0  0  0  0
   14.0398   16.3371    5.5483 H   0  0  0  0  0  0  0  0  0  0  0  0
   14.9886   14.5181    5.9348 N   0  0  0  0  0  0  0  0  0  0  0  0
   14.0600   13.6555    6.3923 C   0  0  0  0  0  0  0  0  0  0  0  0
   14.5045   12.8082    7.5658 C   0  0  0  0  0  0  0  0  0  0  0  0
   12.9327   13.5335    5.9109 O   0  0  0  0  0  0  0  0  0  0  0  0
   14.3543   15.4677    3.6479 C   0  0  0  0  0  0  0  0  0  0  0  0
   13.6485   14.3491    3.3894 N   0  0  0  0  0  0  0  0  0  0  0  0
   13.1189   14.1148    2.0699 C   0  0  0  0  0  0  0  0  0  0  0  0
   14.6074   16.3030    2.7879 O   0  0  0  0  0  0  0  0  0  0  0  0
   18.3297   14.2544    4.3158 C   0  0  0  0  0  0  0  0  0  0  0  0
   17.3325   13.6936    3.5046 C   0  0  0  0  0  0  0  0  0  0  0  0
   17.3067   13.9070    2.1307 C   0  0  0  0  0  0  0  0  0  0  0  0
   18.2779   14.7182    1.5486 C   0  0  0  0  0  0  0  0  0  0  0  0
   18.3165   14.9462    0.1931 O   0  0  0  0  0  0  0  0  0  0  0  0
   17.1979   15.3303   -0.4772 C   0  0  0  0  0  0  0  0  0  0  0  0
   17.1804   15.0915   -1.8548 C   0  0  0  0  0  0  0  0  0  0  0  0
   16.0845   15.4795   -2.6189 C   0  0  0  0  0  0  0  0  0  0  0  0
   15.0023   16.0975   -1.9959 C   0  0  0  0  0  0  0  0  0  0  0  0
   13.6087   16.5670   -2.9552 Cl  0  0  0  0  0  0  0  0  0  0  0  0
   15.0119   16.3408   -0.6260 C   0  0  0  0  0  0  0  0  0  0  0  0
   16.1154   15.9662    0.1358 C   0  0  0  0  0  0  0  0  0  0  0  0
   19.2751   15.2938    2.3344 C   0  0  0  0  0  0  0  0  0  0  0  0
   19.3014   15.0593    3.7050 C   0  0  0  0  0  0  0  0  0  0  0  0
   19.0722   13.0780    7.8800 C   0  0  0  0  0  0  0  0  0  0  0  0
   18.0024   12.6848    8.3212 O   0  0  0  0  0  0  0  0  0  0  0  0
   22.5509   13.4197    8.4828 O   0  0  0  0  0  0  0  0  0  0  0  0
   19.6616   11.1359   10.1337 C   0  0  0  0  0  0  0  0  0  0  0  0
   19.6841   10.5361   11.3925 C   0  0  0  0  0  0  0  0  0  0  0  0
   22.1990   -3.3017   18.5008 H   0  0  0  0  0  0  0  0  0  0  0  0
   21.8463   -3.6607   16.7821 H   0  0  0  0  0  0  0  0  0  0  0  0
   20.5923   -2.9081   17.8143 H   0  0  0  0  0  0  0  0  0  0  0  0
   20.5013   -0.9970   16.3101 H   0  0  0  0  0  0  0  0  0  0  0  0
   21.7443   -1.7445   15.2794 H   0  0  0  0  0  0  0  0  0  0  0  0
   23.2994    0.1595   15.7542 H   0  0  0  0  0  0  0  0  0  0  0  0
   22.1027    0.8601   16.8506 H   0  0  0  0  0  0  0  0  0  0  0  0
   20.4930    1.0715   14.9017 H   0  0  0  0  0  0  0  0  0  0  0  0
   21.7101    0.3560   13.8440 H   0  0  0  0  0  0  0  0  0  0  0  0
   22.3030    1.8903   12.3946 H   0  0  0  0  0  0  0  0  0  0  0  0
   22.8701    3.4898   12.8985 H   0  0  0  0  0  0  0  0  0  0  0  0
   19.9435    2.5456   12.8898 H   0  0  0  0  0  0  0  0  0  0  0  0
   20.6579    3.7067   11.7623 H   0  0  0  0  0  0  0  0  0  0  0  0
   19.7221    3.2273   15.3052 H   0  0  0  0  0  0  0  0  0  0  0  0
   20.3366    4.8105   15.7780 H   0  0  0  0  0  0  0  0  0  0  0  0
   21.9311    2.9647   16.4181 H   0  0  0  0  0  0  0  0  0  0  0  0
   22.6729    4.1134   15.3056 H   0  0  0  0  0  0  0  0  0  0  0  0
   21.1157    5.7692   12.3316 H   0  0  0  0  0  0  0  0  0  0  0  0
   22.0118    5.8008   13.8489 H   0  0  0  0  0  0  0  0  0  0  0  0
   19.9735    6.8134   14.9765 H   0  0  0  0  0  0  0  0  0  0  0  0
   19.1410    6.7781   13.4219 H   0  0  0  0  0  0  0  0  0  0  0  0
   20.9165    8.2929   12.4519 H   0  0  0  0  0  0  0  0  0  0  0  0
   21.7575    8.3146   14.0022 H   0  0  0  0  0  0  0  0  0  0  0  0
   19.8181    9.3720   15.1072 H   0  0  0  0  0  0  0  0  0  0  0  0
   18.8787    9.3135   13.6076 H   0  0  0  0  0  0  0  0  0  0  0  0
   21.6051   12.7996   13.0351 H   0  0  0  0  0  0  0  0  0  0  0  0
   21.5464   13.8814   10.7902 H   0  0  0  0  0  0  0  0  0  0  0  0
   17.3684   13.4660    6.0734 H   0  0  0  0  0  0  0  0  0  0  0  0
   16.6748   16.2587    4.1132 H   0  0  0  0  0  0  0  0  0  0  0  0
   15.9350   17.5586    5.0231 H   0  0  0  0  0  0  0  0  0  0  0  0
   15.8251   14.6502    6.5253 H   0  0  0  0  0  0  0  0  0  0  0  0
   14.1499   11.7808    7.4095 H   0  0  0  0  0  0  0  0  0  0  0  0
   14.0099   13.1936    8.4705 H   0  0  0  0  0  0  0  0  0  0  0  0
   15.5916   12.8135    7.7354 H   0  0  0  0  0  0  0  0  0  0  0  0
   13.2374   13.8707    4.2012 H   0  0  0  0  0  0  0  0  0  0  0  0
   12.2900   14.8001    1.8186 H   0  0  0  0  0  0  0  0  0  0  0  0
   12.7519   13.0817    2.0063 H   0  0  0  0  0  0  0  0  0  0  0  0
   13.9027   14.2618    1.3126 H   0  0  0  0  0  0  0  0  0  0  0  0
   16.5415   13.0975    3.9649 H   0  0  0  0  0  0  0  0  0  0  0  0
   16.5174   13.4667    1.5188 H   0  0  0  0  0  0  0  0  0  0  0  0
   18.0379   14.5962   -2.3130 H   0  0  0  0  0  0  0  0  0  0  0  0
   16.0658   15.2938   -3.6937 H   0  0  0  0  0  0  0  0  0  0  0  0
   14.1663   16.8165   -0.1273 H   0  0  0  0  0  0  0  0  0  0  0  0
   16.0877   16.1615    1.2095 H   0  0  0  0  0  0  0  0  0  0  0  0
   20.0165   15.9368    1.8575 H   0  0  0  0  0  0  0  0  0  0  0  0
   20.0570   15.5555    4.3165 H   0  0  0  0  0  0  0  0  0  0  0  0
   19.1009   10.6712    9.3238 H   0  0  0  0  0  0  0  0  0  0  0  0
   19.1458    9.5984   11.5328 H   0  0  0  0  0  0  0  0  0  0  0  0
  1 59  1  0  0  0  0
  1 57  1  0  0  0  0
  2  1  1  0  0  0  0
  3 60  1  0  0  0  0
  3  2  1  0  0  0  0
  4  3  1  0  0  0  0
  4 63  1  0  0  0  0
  5 64  1  0  0  0  0
  5  4  1  0  0  0  0
  6  5  1  0  0  0  0
  6 11  1  0  0  0  0
  7  6  1  0  0  0  0
  8 68  1  0  0  0  0
  8  7  1  0  0  0  0
  8  9  1  0  0  0  0
  9 10  1  0  0  0  0
 10 70  1  0  0  0  0
 10 11  1  0  0  0  0
 10 71  1  0  0  0  0
 11 72  1  0  0  0  0
 12  9  1  0  0  0  0
 12 75  1  0  0  0  0
 12 13  1  0  0  0  0
 13 76  1  0  0  0  0
 14 13  1  0  0  0  0
 14 79  1  0  0  0  0
 14 15  1  0  0  0  0
 15 80  1  0  0  0  0
 16 15  1  0  0  0  0
 17 16  1  0  0  0  0
 18 17  1  0  0  0  0
 18 82  1  0  0  0  0
 19 18  2  0  0  0  0
 20 55  2  0  0  0  0
 20 19  1  0  0  0  0
 21 20  1  0  0  0  0
 22 54  2  0  0  0  0
 22 21  1  0  0  0  0
 23 24  1  0  0  0  0
 23 22  1  0  0  0  0
 24 25  1  1  0  0  0
 24 52  1  0  0  0  0
 25 84  1  0  0  0  0
 27 28  1  0  0  0  0
 27 26  1  0  0  0  0
 28 29  1  1  0  0  0
 28 30  1  0  0  0  0
 30 31  1  0  0  0  0
 30 87  1  0  0  0  0
 31 32  1  0  0  0  0
 32 90  1  0  0  0  0
 32 89  1  0  0  0  0
 33 31  2  0  0  0  0
 34 28  1  0  0  0  0
 35 34  1  0  0  0  0
 35 91  1  0  0  0  0
 36 35  1  0  0  0  0
 37 34  2  0  0  0  0
 38 25  1  0  0  0  0
 39 95  1  0  0  0  0
 39 38  2  0  0  0  0
 40 39  1  0  0  0  0
 41 40  2  0  0  0  0
 41 50  1  0  0  0  0
 42 41  1  0  0  0  0
 43 49  1  0  0  0  0
 43 42  1  0  0  0  0
 44 43  2  0  0  0  0
 45 46  2  0  0  0  0
 45 44  1  0  0  0  0
 46 48  1  0  0  0  0
 47 46  1  0  0  0  0
 48 99  1  0  0  0  0
 48 49  2  0  0  0  0
 49100  1  0  0  0  0
 50 51  2  0  0  0  0
 51 38  1  0  0  0  0
 51102  1  0  0  0  0
 52 53  2  0  0  0  0
 52 21  1  0  0  0  0
 55 56  1  0  0  0  0
 56104  1  0  0  0  0
 56 17  2  0  0  0  0
 58  1  1  0  0  0  0
 61  3  1  0  0  0  0
 62  4  1  0  0  0  0
 65  5  1  0  0  0  0
 66  7  1  0  0  0  0
 67  7  1  0  0  0  0
 69  8  1  0  0  0  0
 73 11  1  0  0  0  0
 74 12  1  0  0  0  0
 77 13  1  0  0  0  0
 78 14  1  0  0  0  0
 81 15  1  0  0  0  0
 83 19  1  0  0  0  0
 85 27  1  0  0  0  0
 86 27  1  0  0  0  0
 88 32  1  0  0  0  0
 92 36  1  0  0  0  0
 93 36  1  0  0  0  0
 94 36  1  0  0  0  0
 96 40  1  0  0  0  0
 97 44  1  0  0  0  0
 98 45  1  0  0  0  0
101 50  1  0  0  0  0
103 55  1  0  0  0  0
M  END
