-1 1
 OpenBabel05232414493D

104107  0  0  1  0  0  0  0  0999 V2000
   25.6627  -14.9441   -7.5140 C   0  0  0  0  0  0  0  0  0  0  0  0
   25.9935  -16.1559   -8.1347 O   0  0  0  0  0  0  0  0  0  0  0  0
   26.5063  -17.1239   -7.2748 C   0  0  0  0  0  0  0  0  0  0  0  0
   26.7742  -18.3941   -8.0688 C   0  0  0  0  0  0  0  0  0  0  0  0
   25.6173  -18.8314   -8.9817 C   0  0  0  0  0  0  0  0  0  0  0  0
   24.3580  -19.1933   -8.3663 N   0  0  0  0  0  0  0  0  0  0  0  0
   23.4759  -18.1193   -7.9484 C   0  0  0  0  0  0  0  0  0  0  0  0
   22.0801  -18.6798   -7.6829 C   0  0  0  0  0  0  0  0  0  0  0  0
   22.0668  -19.7815   -6.7291 N   0  0  0  0  0  0  0  0  0  0  0  0
   22.9891  -20.8139   -7.1704 C   0  0  0  0  0  0  0  0  0  0  0  0
   24.4058  -20.2894   -7.4266 C   0  0  0  0  0  0  0  0  0  0  0  0
   22.2144  -19.4517   -5.3187 C   0  0  0  0  0  0  0  0  0  0  0  0
   21.1947  -18.4253   -4.8125 C   0  0  0  0  0  0  0  0  0  0  0  0
   21.7479  -17.0043   -4.7218 C   0  0  0  0  0  0  0  0  0  0  0  0
   20.6668  -15.9551   -4.5078 C   0  0  0  0  0  0  0  0  0  0  0  0
   21.1918  -14.6696   -4.2926 O   0  0  0  0  0  0  0  0  0  0  0  0
   21.8117  -14.0132   -5.3101 C   0  0  0  0  0  0  0  0  0  0  0  0
   22.5960  -12.9133   -4.9450 C   0  0  0  0  0  0  0  0  0  0  0  0
   23.2524  -12.1612   -5.9086 C   0  0  0  0  0  0  0  0  0  0  0  0
   23.1521  -12.5103   -7.2592 C   0  0  0  0  0  0  0  0  0  0  0  0
   23.8490  -11.7579   -8.2404 N   0  0  0  0  0  0  0  0  0  0  0  0
   25.1704  -11.3809   -8.0486 C   0  0  0  0  0  0  0  0  0  0  0  0
   25.6974  -10.3371   -9.3803 S   0  0  0  0  0  0  0  0  0  0  0  0
   24.1214  -10.4455  -10.1751 C   0  0  1  0  0  3  0  0  0  0  0  0
   23.7513   -9.8680  -11.3729 C   0  0  0  0  0  3  0  0  0  0  0  0
   22.8025   -7.6079  -11.0236 S   0  0  0  0  0  1  0  0  0  0  0  0
   22.2545   -7.8852   -9.3240 C   0  0  0  0  0  0  0  0  0  0  0  0
   22.9020   -6.9996   -8.2358 C   0  0  2  0  0  0  0  0  0  0  0  0
   23.9952   -7.1264   -8.3093 H   0  0  0  0  0  0  0  0  0  0  0  0
   22.4625   -7.3947   -6.9170 N   0  0  0  0  0  0  0  0  0  0  0  0
   22.9755   -8.4356   -6.2319 C   0  0  0  0  0  0  0  0  0  0  0  0
   22.3565   -8.6941   -4.8708 C   0  0  0  0  0  0  0  0  0  0  0  0
   23.8649   -9.1523   -6.6660 O   0  0  0  0  0  0  0  0  0  0  0  0
   22.5568   -5.5080   -8.3630 C   0  0  0  0  0  0  0  0  0  0  0  0
   23.0409   -4.9054   -9.4672 N   0  0  0  0  0  0  0  0  0  0  0  0
   22.6784   -3.5575   -9.8197 C   0  0  0  0  0  0  0  0  0  0  0  0
   21.8984   -4.9334   -7.5028 O   0  0  0  0  0  0  0  0  0  0  0  0
   24.7037   -9.4617  -12.4313 C   0  0  0  0  0  0  0  0  0  0  0  0
   25.8431   -8.6842  -12.1735 C   0  0  0  0  0  0  0  0  0  0  0  0
   26.7468   -8.3809  -13.1851 C   0  0  0  0  0  0  0  0  0  0  0  0
   26.5149   -8.8463  -14.4781 C   0  0  0  0  0  0  0  0  0  0  0  0
   27.4011   -8.5347  -15.4907 O   0  0  0  0  0  0  0  0  0  0  0  0
   28.4865   -9.3264  -15.6847 C   0  0  0  0  0  0  0  0  0  0  0  0
   29.3659   -8.9399  -16.7031 C   0  0  0  0  0  0  0  0  0  0  0  0
   30.5010   -9.6950  -16.9759 C   0  0  0  0  0  0  0  0  0  0  0  0
   30.7530  -10.8379  -16.2251 C   0  0  0  0  0  0  0  0  0  0  0  0
   31.8475  -11.5663  -16.4872 F   0  0  0  0  0  0  0  0  0  0  0  0
   29.8927  -11.2347  -15.2123 C   0  0  0  0  0  0  0  0  0  0  0  0
   28.7529  -10.4787  -14.9381 C   0  0  0  0  0  0  0  0  0  0  0  0
   25.3792   -9.5935  -14.7674 C   0  0  0  0  0  0  0  0  0  0  0  0
   24.4804   -9.8925  -13.7448 C   0  0  0  0  0  0  0  0  0  0  0  0
   23.2031  -11.2599   -9.4078 C   0  0  0  0  0  0  0  0  0  0  0  0
   22.0517  -11.5450   -9.6831 O   0  0  0  0  0  0  0  0  0  0  0  0
   25.8866  -11.7294   -7.1425 O   0  0  0  0  0  0  0  0  0  0  0  0
   22.3687  -13.6014   -7.6276 C   0  0  0  0  0  0  0  0  0  0  0  0
   21.6945  -14.3494   -6.6623 C   0  0  0  0  0  0  0  0  0  0  0  0
   25.2628  -14.2724   -8.2828 H   0  0  0  0  0  0  0  0  0  0  0  0
   26.5396  -14.4553   -7.0530 H   0  0  0  0  0  0  0  0  0  0  0  0
   24.8870  -15.0789   -6.7347 H   0  0  0  0  0  0  0  0  0  0  0  0
   25.7936  -17.3291   -6.4474 H   0  0  0  0  0  0  0  0  0  0  0  0
   27.4431  -16.7706   -6.7946 H   0  0  0  0  0  0  0  0  0  0  0  0
   27.0438  -19.2012   -7.3668 H   0  0  0  0  0  0  0  0  0  0  0  0
   27.6555  -18.2324   -8.7123 H   0  0  0  0  0  0  0  0  0  0  0  0
   25.9646  -19.6992   -9.5718 H   0  0  0  0  0  0  0  0  0  0  0  0
   25.4218  -18.0193   -9.6974 H   0  0  0  0  0  0  0  0  0  0  0  0
   23.4334  -17.3576   -8.7407 H   0  0  0  0  0  0  0  0  0  0  0  0
   23.8352  -17.5938   -7.0377 H   0  0  0  0  0  0  0  0  0  0  0  0
   21.6736  -19.0618   -8.6351 H   0  0  0  0  0  0  0  0  0  0  0  0
   21.4045  -17.8799   -7.3469 H   0  0  0  0  0  0  0  0  0  0  0  0
   22.6080  -21.2379   -8.1158 H   0  0  0  0  0  0  0  0  0  0  0  0
   23.0107  -21.6249   -6.4243 H   0  0  0  0  0  0  0  0  0  0  0  0
   25.0236  -21.0990   -7.8508 H   0  0  0  0  0  0  0  0  0  0  0  0
   24.8800  -20.0055   -6.4582 H   0  0  0  0  0  0  0  0  0  0  0  0
   23.2330  -19.0900   -5.0540 H   0  0  0  0  0  0  0  0  0  0  0  0
   22.0842  -20.3983   -4.7687 H   0  0  0  0  0  0  0  0  0  0  0  0
   20.8367  -18.7301   -3.8154 H   0  0  0  0  0  0  0  0  0  0  0  0
   20.3093  -18.4652   -5.4701 H   0  0  0  0  0  0  0  0  0  0  0  0
   22.3181  -16.7568   -5.6297 H   0  0  0  0  0  0  0  0  0  0  0  0
   22.4668  -16.9345   -3.8889 H   0  0  0  0  0  0  0  0  0  0  0  0
   20.0883  -16.1876   -3.6005 H   0  0  0  0  0  0  0  0  0  0  0  0
   19.9497  -15.9589   -5.3507 H   0  0  0  0  0  0  0  0  0  0  0  0
   22.6717  -12.6591   -3.8861 H   0  0  0  0  0  0  0  0  0  0  0  0
   23.8459  -11.2883   -5.6370 H   0  0  0  0  0  0  0  0  0  0  0  0
   22.7769  -10.2110  -11.7260 H   0  0  0  0  0  0  0  0  0  0  0  0
   22.5248   -8.9220   -9.0575 H   0  0  0  0  0  0  0  0  0  0  0  0
   21.1589   -7.8018   -9.2424 H   0  0  0  0  0  0  0  0  0  0  0  0
   21.8239   -6.7351   -6.4817 H   0  0  0  0  0  0  0  0  0  0  0  0
   23.1625   -8.8156   -4.1343 H   0  0  0  0  0  0  0  0  0  0  0  0
   21.8049   -9.6450   -4.9193 H   0  0  0  0  0  0  0  0  0  0  0  0
   21.6724   -7.8999   -4.5413 H   0  0  0  0  0  0  0  0  0  0  0  0
   23.3589   -5.5434  -10.2076 H   0  0  0  0  0  0  0  0  0  0  0  0
   23.5397   -3.0304  -10.2570 H   0  0  0  0  0  0  0  0  0  0  0  0
   22.3574   -3.0313   -8.9116 H   0  0  0  0  0  0  0  0  0  0  0  0
   21.8491   -3.5315  -10.5472 H   0  0  0  0  0  0  0  0  0  0  0  0
   25.9974   -8.2785  -11.1723 H   0  0  0  0  0  0  0  0  0  0  0  0
   27.6332   -7.7760  -12.9848 H   0  0  0  0  0  0  0  0  0  0  0  0
   29.1388   -8.0373  -17.2725 H   0  0  0  0  0  0  0  0  0  0  0  0
   31.1962   -9.4066  -17.7662 H   0  0  0  0  0  0  0  0  0  0  0  0
   30.1163  -12.1352  -14.6380 H   0  0  0  0  0  0  0  0  0  0  0  0
   28.0743  -10.7860  -14.1414 H   0  0  0  0  0  0  0  0  0  0  0  0
   25.2097   -9.9362  -15.7899 H   0  0  0  0  0  0  0  0  0  0  0  0
   23.5873  -10.4810  -13.9676 H   0  0  0  0  0  0  0  0  0  0  0  0
   22.2739  -13.8625   -8.6809 H   0  0  0  0  0  0  0  0  0  0  0  0
   21.0827  -15.1928   -6.9846 H   0  0  0  0  0  0  0  0  0  0  0  0
  1 58  1  0  0  0  0
  1 59  1  0  0  0  0
  2  1  1  0  0  0  0
  2  3  1  0  0  0  0
  3 61  1  0  0  0  0
  3 60  1  0  0  0  0
  4 62  1  0  0  0  0
  4  3  1  0  0  0  0
  5  6  1  0  0  0  0
  5  4  1  0  0  0  0
  6  7  1  0  0  0  0
  6 11  1  0  0  0  0
  7  8  1  0  0  0  0
  7 67  1  0  0  0  0
  8 69  1  0  0  0  0
  8  9  1  0  0  0  0
  9 12  1  0  0  0  0
 10  9  1  0  0  0  0
 10 71  1  0  0  0  0
 11 10  1  0  0  0  0
 11 73  1  0  0  0  0
 12 74  1  0  0  0  0
 12 13  1  0  0  0  0
 12 75  1  0  0  0  0
 13 14  1  0  0  0  0
 13 76  1  0  0  0  0
 14 15  1  0  0  0  0
 14 79  1  0  0  0  0
 15 16  1  0  0  0  0
 15 80  1  0  0  0  0
 17 18  1  0  0  0  0
 17 16  1  0  0  0  0
 18 82  1  0  0  0  0
 19 83  1  0  0  0  0
 19 18  2  0  0  0  0
 20 19  1  0  0  0  0
 21 22  1  0  0  0  0
 21 20  1  0  0  0  0
 22 54  2  0  0  0  0
 23 22  1  0  0  0  0
 24 25  1  6  0  0  0
 24 52  1  0  0  0  0
 24 23  1  0  0  0  0
 26 27  1  0  0  0  0
 27 86  1  0  0  0  0
 27 85  1  0  0  0  0
 27 28  1  0  0  0  0
 28 29  1  6  0  0  0
 28 30  1  0  0  0  0
 30 87  1  0  0  0  0
 30 31  1  0  0  0  0
 31 32  1  0  0  0  0
 32 90  1  0  0  0  0
 32 88  1  0  0  0  0
 33 31  2  0  0  0  0
 34 28  1  0  0  0  0
 34 37  2  0  0  0  0
 35 34  1  0  0  0  0
 36 35  1  0  0  0  0
 36 93  1  0  0  0  0
 38 39  1  0  0  0  0
 38 25  1  0  0  0  0
 39 95  1  0  0  0  0
 40 96  1  0  0  0  0
 40 39  2  0  0  0  0
 41 40  1  0  0  0  0
 42 41  1  0  0  0  0
 43 42  1  0  0  0  0
 43 49  1  0  0  0  0
 44 43  2  0  0  0  0
 45 44  1  0  0  0  0
 45 46  2  0  0  0  0
 46 48  1  0  0  0  0
 47 46  1  0  0  0  0
 48 49  2  0  0  0  0
 48 99  1  0  0  0  0
 49100  1  0  0  0  0
 50 41  2  0  0  0  0
 50 51  1  0  0  0  0
 51 38  2  0  0  0  0
 52 21  1  0  0  0  0
 53 52  2  0  0  0  0
 55 20  2  0  0  0  0
 55 56  1  0  0  0  0
 56 17  2  0  0  0  0
 57  1  1  0  0  0  0
 63  4  1  0  0  0  0
 64  5  1  0  0  0  0
 65  5  1  0  0  0  0
 66  7  1  0  0  0  0
 68  8  1  0  0  0  0
 70 10  1  0  0  0  0
 72 11  1  0  0  0  0
 77 13  1  0  0  0  0
 78 14  1  0  0  0  0
 81 15  1  0  0  0  0
 84 25  1  0  0  0  0
 89 32  1  0  0  0  0
 91 35  1  0  0  0  0
 92 36  1  0  0  0  0
 94 36  1  0  0  0  0
 97 44  1  0  0  0  0
 98 45  1  0  0  0  0
101 50  1  0  0  0  0
102 51  1  0  0  0  0
103 55  1  0  0  0  0
104 56  1  0  0  0  0
M  END
