-1 1
 OpenBabel05192410563D

104108  0  0  1  0  0  0  0  0999 V2000
    1.1389   -2.2015    1.4741 C   0  0  0  0  0  0  0  0  0  0  0  0
    1.5258   -3.3514    0.7720 O   0  0  0  0  0  0  0  0  0  0  0  0
    2.2068   -4.2934    1.5382 C   0  0  0  0  0  0  0  0  0  0  0  0
    2.5023   -5.5090    0.6717 C   0  0  0  0  0  0  0  0  0  0  0  0
    1.3001   -6.0178   -0.1400 C   0  0  0  0  0  0  0  0  0  0  0  0
    0.1453   -6.5099    0.5810 N   0  0  0  0  0  0  0  0  0  0  0  0
   -0.7798   -5.5348    1.1290 C   0  0  0  0  0  0  0  0  0  0  0  0
   -2.0906   -6.2278    1.4962 C   0  0  0  0  0  0  0  0  0  0  0  0
   -1.9173   -7.3613    2.3960 N   0  0  0  0  0  0  0  0  0  0  0  0
   -0.9548   -8.2888    1.8265 C   0  0  0  0  0  0  0  0  0  0  0  0
    0.3797   -7.6293    1.4632 C   0  0  0  0  0  0  0  0  0  0  0  0
   -1.6658   -7.0686    3.7998 C   0  0  0  0  0  0  0  0  0  0  0  0
   -2.7320   -6.1762    4.4455 C   0  0  0  0  0  0  0  0  0  0  0  0
   -2.3195   -4.7101    4.5604 C   0  0  0  0  0  0  0  0  0  0  0  0
   -3.4767   -3.7921    4.9267 C   0  0  0  0  0  0  0  0  0  0  0  0
   -3.0690   -2.4701    5.1701 O   0  0  0  0  0  0  0  0  0  0  0  0
   -2.5684   -1.7221    4.1465 C   0  0  0  0  0  0  0  0  0  0  0  0
   -1.7989   -0.6129    4.5078 C   0  0  0  0  0  0  0  0  0  0  0  0
   -1.2598    0.2242    3.5390 C   0  0  0  0  0  0  0  0  0  0  0  0
   -1.4661   -0.0455    2.1815 C   0  0  0  0  0  0  0  0  0  0  0  0
   -0.8826    0.7753    1.1855 N   0  0  0  0  0  0  0  0  0  0  0  0
    0.4116    1.2353    1.3025 C   0  0  0  0  0  0  0  0  0  0  0  0
    0.7967    2.2406   -0.1118 S   0  0  0  0  0  0  0  0  0  0  0  0
   -0.7920    1.9422   -0.8347 C   0  0  2  0  0  3  0  0  0  0  0  0
   -1.2897    2.6275   -2.0416 C   0  0  1  0  0  0  0  0  0  0  0  0
   -1.8818    4.4105   -1.7927 S   0  0  0  0  0  0  0  0  0  0  0  0
   -2.8893    4.1774   -0.3033 C   0  0  0  0  0  0  0  0  0  0  0  0
   -2.1039    4.2697    1.0053 C   0  0  2  0  0  0  0  0  0  0  0  0
   -1.2897    3.5380    0.9873 H   0  0  0  0  0  0  0  0  0  0  0  0
   -2.9703    3.9180    2.1087 N   0  0  0  0  0  0  0  0  0  0  0  0
   -2.4686    3.4563    3.2815 C   0  0  0  0  0  0  0  0  0  0  0  0
   -3.4903    2.9273    4.2663 C   0  0  0  0  0  0  0  0  0  0  0  0
   -1.2713    3.4266    3.5091 O   0  0  0  0  0  0  0  0  0  0  0  0
   -1.5071    5.6702    1.1859 C   0  0  0  0  0  0  0  0  0  0  0  0
   -0.1554    5.6925    1.1620 N   0  0  0  0  0  0  0  0  0  0  0  0
    0.6080    6.9051    1.2651 C   0  0  0  0  0  0  0  0  0  0  0  0
   -2.2124    6.6572    1.3159 O   0  0  0  0  0  0  0  0  0  0  0  0
   -0.3028    2.6266   -3.1895 C   0  0  0  0  0  0  0  0  0  0  0  0
    0.7512    3.5450   -3.2625 C   0  0  0  0  0  0  0  0  0  0  0  0
    1.7072    3.4617   -4.2730 C   0  0  0  0  0  0  0  0  0  0  0  0
    1.6126    2.4512   -5.2237 C   0  0  0  0  0  0  0  0  0  0  0  0
    2.5515    2.3671   -6.2323 O   0  0  0  0  0  0  0  0  0  0  0  0
    3.6804    1.6406   -6.0221 C   0  0  0  0  0  0  0  0  0  0  0  0
    4.5981    1.5992   -7.0780 C   0  0  0  0  0  0  0  0  0  0  0  0
    5.7807    0.8787   -6.9533 C   0  0  0  0  0  0  0  0  0  0  0  0
    6.0405    0.2004   -5.7676 C   0  0  0  0  0  0  0  0  0  0  0  0
    7.1804   -0.4942   -5.6469 F   0  0  0  0  0  0  0  0  0  0  0  0
    5.1419    0.2314   -4.7117 C   0  0  0  0  0  0  0  0  0  0  0  0
    3.9549    0.9536   -4.8352 C   0  0  0  0  0  0  0  0  0  0  0  0
    0.5657    1.5342   -5.1811 C   0  0  0  0  0  0  0  0  0  0  0  0
   -0.3830    1.6284   -4.1671 C   0  0  0  0  0  0  0  0  0  0  0  0
   -1.6132    1.1707   -0.0127 C   0  0  0  0  0  0  0  0  0  0  0  0
   -2.7986    0.8408   -0.1584 O   0  0  0  0  0  0  0  0  0  0  0  0
    1.2013    0.9882    2.1887 O   0  0  0  0  0  0  0  0  0  0  0  0
   -2.2416   -1.1485    1.8190 C   0  0  0  0  0  0  0  0  0  0  0  0
   -2.7961   -1.9794    2.7910 C   0  0  0  0  0  0  0  0  0  0  0  0
    0.5951   -1.5523    0.7771 H   0  0  0  0  0  0  0  0  0  0  0  0
    2.0030   -1.6376    1.8687 H   0  0  0  0  0  0  0  0  0  0  0  0
    0.4657   -2.4439    2.3195 H   0  0  0  0  0  0  0  0  0  0  0  0
    1.6028   -4.5886    2.4228 H   0  0  0  0  0  0  0  0  0  0  0  0
    3.1528   -3.8709    1.9379 H   0  0  0  0  0  0  0  0  0  0  0  0
    2.9095   -6.3107    1.3108 H   0  0  0  0  0  0  0  0  0  0  0  0
    3.2967   -5.2492   -0.0482 H   0  0  0  0  0  0  0  0  0  0  0  0
    1.6579   -6.8319   -0.7967 H   0  0  0  0  0  0  0  0  0  0  0  0
    0.9646   -5.2032   -0.7985 H   0  0  0  0  0  0  0  0  0  0  0  0
   -0.9629   -4.7496    0.3811 H   0  0  0  0  0  0  0  0  0  0  0  0
   -0.3800   -5.0151    2.0261 H   0  0  0  0  0  0  0  0  0  0  0  0
   -2.5522   -6.6086    0.5690 H   0  0  0  0  0  0  0  0  0  0  0  0
   -2.7965   -5.5048    1.9302 H   0  0  0  0  0  0  0  0  0  0  0  0
   -1.3863   -8.7115    0.9023 H   0  0  0  0  0  0  0  0  0  0  0  0
   -0.7913   -9.1206    2.5310 H   0  0  0  0  0  0  0  0  0  0  0  0
    1.0216   -8.3641    0.9482 H   0  0  0  0  0  0  0  0  0  0  0  0
    0.9189   -7.3379    2.3948 H   0  0  0  0  0  0  0  0  0  0  0  0
   -0.6688   -6.6096    3.9837 H   0  0  0  0  0  0  0  0  0  0  0  0
   -1.6430   -8.0428    4.3154 H   0  0  0  0  0  0  0  0  0  0  0  0
   -2.9648   -6.5584    5.4530 H   0  0  0  0  0  0  0  0  0  0  0  0
   -3.6654   -6.2811    3.8659 H   0  0  0  0  0  0  0  0  0  0  0  0
   -1.8671   -4.3643    3.6187 H   0  0  0  0  0  0  0  0  0  0  0  0
   -1.5351   -4.6001    5.3272 H   0  0  0  0  0  0  0  0  0  0  0  0
   -3.9434   -4.1288    5.8654 H   0  0  0  0  0  0  0  0  0  0  0  0
   -4.2639   -3.8343    4.1496 H   0  0  0  0  0  0  0  0  0  0  0  0
   -1.6355   -0.4165    5.5691 H   0  0  0  0  0  0  0  0  0  0  0  0
   -0.6826    1.1010    3.8300 H   0  0  0  0  0  0  0  0  0  0  0  0
   -2.1950    2.0816   -2.3414 H   0  0  0  0  0  0  0  0  0  0  0  0
   -3.3744    3.1909   -0.3600 H   0  0  0  0  0  0  0  0  0  0  0  0
   -3.6565    4.9674   -0.3224 H   0  0  0  0  0  0  0  0  0  0  0  0
   -3.9698    3.9391    1.9649 H   0  0  0  0  0  0  0  0  0  0  0  0
   -3.1296    3.1125    5.2855 H   0  0  0  0  0  0  0  0  0  0  0  0
   -3.5683    1.8380    4.1245 H   0  0  0  0  0  0  0  0  0  0  0  0
   -4.4865    3.3739    4.1366 H   0  0  0  0  0  0  0  0  0  0  0  0
    0.3260    4.8041    1.0590 H   0  0  0  0  0  0  0  0  0  0  0  0
    1.2611    6.8966    2.1529 H   0  0  0  0  0  0  0  0  0  0  0  0
   -0.1007    7.7386    1.3553 H   0  0  0  0  0  0  0  0  0  0  0  0
    1.2328    7.0649    0.3715 H   0  0  0  0  0  0  0  0  0  0  0  0
    0.8236    4.3361   -2.5125 H   0  0  0  0  0  0  0  0  0  0  0  0
    2.5353    4.1710   -4.3263 H   0  0  0  0  0  0  0  0  0  0  0  0
    4.3631    2.1429   -7.9943 H   0  0  0  0  0  0  0  0  0  0  0  0
    6.5066    0.8366   -7.7672 H   0  0  0  0  0  0  0  0  0  0  0  0
    5.3711   -0.3096   -3.7921 H   0  0  0  0  0  0  0  0  0  0  0  0
    3.2475    0.9802   -4.0051 H   0  0  0  0  0  0  0  0  0  0  0  0
    0.5096    0.7515   -5.9402 H   0  0  0  0  0  0  0  0  0  0  0  0
   -1.1975    0.9016   -4.1189 H   0  0  0  0  0  0  0  0  0  0  0  0
   -2.4268   -1.3431    0.7639 H   0  0  0  0  0  0  0  0  0  0  0  0
   -3.4018   -2.8288    2.4715 H   0  0  0  0  0  0  0  0  0  0  0  0
  1 58  1  0  0  0  0
  1 59  1  0  0  0  0
  2  1  1  0  0  0  0
  2  3  1  0  0  0  0
  3 61  1  0  0  0  0
  3 60  1  0  0  0  0
  4 62  1  0  0  0  0
  4  3  1  0  0  0  0
  5  6  1  0  0  0  0
  5  4  1  0  0  0  0
  6  7  1  0  0  0  0
  6 11  1  0  0  0  0
  7  8  1  0  0  0  0
  7 67  1  0  0  0  0
  8 69  1  0  0  0  0
  8  9  1  0  0  0  0
  9 12  1  0  0  0  0
 10  9  1  0  0  0  0
 10 71  1  0  0  0  0
 11 10  1  0  0  0  0
 11 73  1  0  0  0  0
 12 74  1  0  0  0  0
 12 75  1  0  0  0  0
 12 13  1  0  0  0  0
 13 14  1  0  0  0  0
 13 76  1  0  0  0  0
 14 15  1  0  0  0  0
 14 79  1  0  0  0  0
 15 16  1  0  0  0  0
 15 80  1  0  0  0  0
 17 18  1  0  0  0  0
 17 16  1  0  0  0  0
 18 82  1  0  0  0  0
 19 83  1  0  0  0  0
 19 18  2  0  0  0  0
 20 19  1  0  0  0  0
 21 22  1  0  0  0  0
 21 20  1  0  0  0  0
 22 54  2  0  0  0  0
 23 22  1  0  0  0  0
 24 25  1  1  0  0  0
 24 23  1  0  0  0  0
 24 52  1  0  0  0  0
 25 84  1  6  0  0  0
 25 26  1  0  0  0  0
 26 27  1  0  0  0  0
 27 28  1  0  0  0  0
 28 29  1  6  0  0  0
 28 34  1  0  0  0  0
 28 30  1  0  0  0  0
 30 31  1  0  0  0  0
 31 33  2  0  0  0  0
 31 32  1  0  0  0  0
 32 88  1  0  0  0  0
 34 37  2  0  0  0  0
 35 34  1  0  0  0  0
 35 36  1  0  0  0  0
 36 93  1  0  0  0  0
 36 92  1  0  0  0  0
 38 25  1  0  0  0  0
 39 38  1  0  0  0  0
 39 95  1  0  0  0  0
 40 39  2  0  0  0  0
 41 50  2  0  0  0  0
 41 40  1  0  0  0  0
 42 43  1  0  0  0  0
 42 41  1  0  0  0  0
 43 49  1  0  0  0  0
 44 45  1  0  0  0  0
 44 43  2  0  0  0  0
 45 46  2  0  0  0  0
 46 47  1  0  0  0  0
 46 48  1  0  0  0  0
 48 99  1  0  0  0  0
 49 48  2  0  0  0  0
 49100  1  0  0  0  0
 50 51  1  0  0  0  0
 51102  1  0  0  0  0
 51 38  2  0  0  0  0
 52 21  1  0  0  0  0
 53 52  2  0  0  0  0
 55 20  2  0  0  0  0
 55 56  1  0  0  0  0
 56 17  2  0  0  0  0
 57  1  1  0  0  0  0
 63  4  1  0  0  0  0
 64  5  1  0  0  0  0
 65  5  1  0  0  0  0
 66  7  1  0  0  0  0
 68  8  1  0  0  0  0
 70 10  1  0  0  0  0
 72 11  1  0  0  0  0
 77 13  1  0  0  0  0
 78 14  1  0  0  0  0
 81 15  1  0  0  0  0
 85 27  1  0  0  0  0
 86 27  1  0  0  0  0
 87 30  1  0  0  0  0
 89 32  1  0  0  0  0
 90 32  1  0  0  0  0
 91 35  1  0  0  0  0
 94 36  1  0  0  0  0
 96 40  1  0  0  0  0
 97 44  1  0  0  0  0
 98 45  1  0  0  0  0
101 50  1  0  0  0  0
103 55  1  0  0  0  0
104 56  1  0  0  0  0
M  END
