83
-1 1
C         5.431940   -2.329487   -2.050608
O         5.489768   -3.401302   -1.150859
C         6.758382   -3.759147   -0.696541
C         7.407048   -2.732750    0.225360
O         6.582053   -2.492178    1.340438
C         5.801067   -1.390763    1.374836
C         6.182781   -0.153560    0.903827
C         4.525770   -1.546439    2.009461
O         4.181918   -2.755795    2.516187
C         3.450304   -3.566469    1.610413
C         3.663937   -0.482690    2.078138
C         3.995977    0.767400    1.499196
C         5.298349    0.953754    0.968616
N         5.738589    2.172910    0.555919
C         4.892916    3.162741    0.700320
N         3.612983    3.095252    1.101955
C         3.133246    1.911036    1.432760
N         1.794381    1.872942    1.754460
C         0.817346    0.959332    1.437473
C         0.955558   -0.210346    0.757946
C        -0.148292   -1.129843    0.530488
O         0.009185   -2.181402   -0.083392
C        -1.480533   -0.729720    1.078748
C        -1.628676    0.427403    1.749907
S        -0.881790    2.460918   -0.421234
C        -2.289491    3.559190   -0.047033
C        -3.691150    3.105972   -0.494216
H        -4.421629    3.854793   -0.159265
N        -4.097869    1.867643    0.143396
C        -5.149526    1.796451    1.005459
C        -5.429180    0.416971    1.577707
O        -5.849993    2.749102    1.292429
C        -3.951814    2.971064   -2.008593
N        -2.959191    2.406714   -2.729573
C        -3.074477    2.137411   -4.137129
O        -5.032083    3.297196   -2.481583
C        -0.519994    1.360106    2.011021
O        -0.602027    2.275086    2.819044
O        -2.597440   -1.424389    0.736258
C        -2.653887   -2.831094    0.871730
C        -3.911628   -3.347041    0.205156
O        -3.817262   -3.444069   -1.196250
C        -4.312754   -2.484316   -2.017271
C        -4.481673   -2.856076   -3.357422
C        -4.991504   -1.943355   -4.274787
C        -5.348455   -0.654760   -3.871846
C        -5.173289   -0.284306   -2.540469
C        -4.652930   -1.189722   -1.614939
H         5.695196   -1.364794   -1.579932
H         4.396794   -2.260015   -2.408709
H         6.099121   -2.494356   -2.919202
H         7.450167   -3.955280   -1.543670
H         6.627731   -4.700073   -0.141223
H         7.633862   -1.803256   -0.319132
H         8.363164   -3.136879    0.593164
H         7.172946    0.031155    0.486718
H         4.022568   -3.743647    0.685499
H         3.259763   -4.520781    2.118310
H         2.485449   -3.100951    1.342014
H         2.701124   -0.635889    2.563006
H         5.251567    4.165807    0.439509
H         1.394369    2.780860    1.992877
H         1.894804   -0.509092    0.296032
H        -2.598303    0.737995    2.137579
H        -2.097215    4.553714   -0.480772
H        -2.323817    3.693135    1.049025
H        -3.482537    1.070670    0.017411
H        -5.767963    0.535198    2.614931
H        -4.564530   -0.259283    1.536267
H        -6.252676   -0.034425    1.002916
H        -2.094411    2.165068   -2.228952
H        -2.313520    2.687831   -4.714829
H        -4.071192    2.458881   -4.466516
H        -2.963196    1.061118   -4.346153
H        -2.691922   -3.093963    1.946370
H        -1.770475   -3.296863    0.416298
H        -4.786599   -2.745309    0.507191
H        -4.075551   -4.375807    0.563767
H        -4.203629   -3.869340   -3.653431
H        -5.115510   -2.245802   -5.317892
H        -5.748378    0.063459   -4.589995
H        -5.427727    0.729104   -2.219068
H        -4.476796   -0.874551   -0.590499
