83
-1 1
C         5.882058   -3.652827   -2.021280
O         5.904828   -4.562247   -0.959736
C         6.957778   -4.412488   -0.056732
C         7.012099   -3.062408    0.639103
O         5.791532   -2.857580    1.296059
C         5.397100   -1.600207    1.572359
C         6.233144   -0.505689    1.611834
C         3.999288   -1.450463    1.853301
O         3.199163   -2.540583    1.891046
C         2.775451   -3.007372    0.614170
C         3.486932   -0.198672    2.065589
C         4.308349    0.954853    1.987471
C         5.708370    0.794442    1.843786
N         6.568734    1.846028    1.942036
C         6.014100    3.010242    2.174658
N         4.706672    3.310466    2.192675
C         3.844298    2.316732    2.024417
N         2.532756    2.672398    1.905955
C         1.494093    2.035042    1.210264
C         1.642088    1.139471    0.210038
C         0.557692    0.283819   -0.366117
O         0.902205   -0.638460   -1.156099
C        -0.707275    0.563461    0.132595
C        -1.015247    1.794014    0.880984
S        -1.555001    3.228338   -0.262554
C        -3.277512    3.538040    0.229755
C        -4.319801    2.505633   -0.238723
H        -5.309382    2.911191    0.013468
N        -4.206411    1.246889    0.464680
C        -5.001755    0.939845    1.524250
C        -4.666205   -0.380984    2.195910
O        -5.929889    1.632638    1.900156
C        -4.306440    2.377932   -1.768540
N        -3.598266    1.359006   -2.296684
C        -3.488595    1.203369   -3.724864
O        -4.904062    3.199176   -2.446579
C         0.136822    2.369307    1.692601
O        -0.039989    3.103372    2.644203
O        -1.846851   -0.109680   -0.339660
C        -1.758750   -1.518622   -0.362790
C        -3.081824   -2.088287   -0.805568
O        -3.310123   -1.789881   -2.167625
C        -4.583553   -1.764868   -2.637184
C        -4.823177   -2.382784   -3.867669
C        -6.089559   -2.322593   -4.444769
C        -7.128100   -1.653682   -3.797725
C        -6.883760   -1.036785   -2.570360
C        -5.620620   -1.086096   -1.986684
H         5.587750   -2.635519   -1.703976
H         5.134552   -4.008214   -2.742767
H         6.864112   -3.591603   -2.532147
H         7.938337   -4.572035   -0.554992
H         6.828679   -5.203588    0.696353
H         7.192976   -2.253125   -0.090917
H         7.859132   -3.052907    1.350650
H         7.311566   -0.588504    1.478130
H         3.624993   -3.439125    0.059095
H         2.039508   -3.800132    0.801889
H         2.294952   -2.200899    0.029961
H         2.419012   -0.125134    2.258693
H         6.692436    3.857212    2.339702
H         2.331038    3.621004    2.208351
H         2.630620    0.908529   -0.192808
H        -1.862310    1.686353    1.572484
H        -3.521263    4.509880   -0.224150
H        -3.340988    3.656512    1.321827
H        -3.387013    0.663952    0.278175
H        -4.870849   -0.291118    3.270003
H        -3.621198   -0.685109    2.040175
H        -5.325632   -1.165371    1.792481
H        -2.971235    0.804739   -1.713979
H        -3.026880    2.087257   -4.194447
H        -4.482279    1.057667   -4.176775
H        -2.872060    0.319779   -3.930574
H        -1.531172   -1.894087    0.654193
H        -0.933613   -1.821487   -1.025319
H        -3.892489   -1.690441   -0.174863
H        -3.062971   -3.185530   -0.669948
H        -3.994189   -2.895167   -4.359266
H        -6.264455   -2.803875   -5.410182
H        -8.119887   -1.602487   -4.251856
H        -7.679996   -0.486541   -2.064107
H        -5.426622   -0.548073   -1.057831
