-1 1
 OpenBabel05232414493D

101104  0  0  1  0  0  0  0  0999 V2000
   32.9361  -12.2895    2.9455 C   0  0  0  0  0  0  0  0  0  0  0  0
   32.6737  -10.9235    2.9615 O   0  0  0  0  0  0  0  0  0  0  0  0
   31.5636  -10.5591    2.1788 C   0  0  0  0  0  0  0  0  0  0  0  0
   31.2961   -9.0705    2.3076 C   0  0  0  0  0  0  0  0  0  0  0  0
   30.8414   -8.6969    3.6289 N   0  0  0  0  0  0  0  0  0  0  0  0
   31.8781   -8.2632    4.5534 C   0  0  0  0  0  0  0  0  0  0  0  0
   32.2556   -6.7869    4.3549 C   0  0  0  0  0  0  0  0  0  0  0  0
   31.1057   -5.8919    4.3999 N   0  0  0  0  0  0  0  0  0  0  0  0
   30.0710   -6.3453    3.4712 C   0  0  0  0  0  0  0  0  0  0  0  0
   29.6853   -7.8084    3.6844 C   0  0  0  0  0  0  0  0  0  0  0  0
   30.6337   -5.6060    5.7444 C   0  0  0  0  0  0  0  0  0  0  0  0
   31.3808   -4.4308    6.3765 C   0  0  0  0  0  0  0  0  0  0  0  0
   31.0424   -4.1588    7.8450 C   0  0  0  0  0  0  0  0  0  0  0  0
   29.5564   -3.9892    8.1518 C   0  0  0  0  0  0  0  0  0  0  0  0
   28.9465   -5.2535    8.3147 O   0  0  0  0  0  0  0  0  0  0  0  0
   27.9062   -5.6376    7.5317 C   0  0  0  0  0  0  0  0  0  0  0  0
   26.9363   -4.7554    7.0438 C   0  0  0  0  0  0  0  0  0  0  0  0
   25.9569   -5.2215    6.1660 C   0  0  0  0  0  0  0  0  0  0  0  0
   25.9281   -6.5629    5.8021 C   0  0  0  0  0  0  0  0  0  0  0  0
   25.0030   -7.0411    4.8296 N   0  0  0  0  0  0  0  0  0  0  0  0
   23.6610   -7.2089    5.1075 C   0  0  0  0  0  0  0  0  0  0  0  0
   22.8662   -7.9978    3.7178 S   0  0  0  0  0  0  0  0  0  0  0  0
   24.3917   -8.0956    2.8192 C   0  0  2  0  0  3  0  0  0  0  0  0
   24.6498   -8.7455    1.6247 C   0  0  0  0  0  3  0  0  0  0  0  0
   25.2457  -11.1581    1.8791 S   0  0  0  0  0  1  0  0  0  0  0  0
   26.9325  -11.3444    2.5389 C   0  0  0  0  0  0  0  0  0  0  0  0
   27.2477  -10.8101    3.9512 C   0  0  2  0  0  0  0  0  0  0  0  0
   27.2372   -9.7094    3.9238 H   0  0  0  0  0  0  0  0  0  0  0  0
   28.5849  -11.2413    4.2987 N   0  0  0  0  0  0  0  0  0  0  0  0
   29.2550  -10.7561    5.3799 C   0  0  0  0  0  0  0  0  0  0  0  0
   30.5652  -11.4505    5.6818 C   0  0  0  0  0  0  0  0  0  0  0  0
   28.8631   -9.8048    6.0326 O   0  0  0  0  0  0  0  0  0  0  0  0
   26.2592  -11.2838    5.0329 C   0  0  0  0  0  0  0  0  0  0  0  0
   25.1143  -10.5548    5.0921 N   0  0  0  0  0  0  0  0  0  0  0  0
   24.0284  -10.9310    5.9628 C   0  0  0  0  0  0  0  0  0  0  0  0
   26.5253  -12.1997    5.7900 O   0  0  0  0  0  0  0  0  0  0  0  0
   23.6318   -9.1067    0.6153 C   0  0  0  0  0  0  0  0  0  0  0  0
   23.9084   -8.8828   -0.7407 C   0  0  0  0  0  0  0  0  0  0  0  0
   22.9914   -9.2215   -1.7294 C   0  0  0  0  0  0  0  0  0  0  0  0
   21.7799   -9.8015   -1.3642 C   0  0  0  0  0  0  0  0  0  0  0  0
   20.8682  -10.1476   -2.3430 O   0  0  0  0  0  0  0  0  0  0  0  0
   20.9195  -11.3922   -2.8760 C   0  0  0  0  0  0  0  0  0  0  0  0
   19.9820  -11.6800   -3.8752 C   0  0  0  0  0  0  0  0  0  0  0  0
   19.9611  -12.9305   -4.4794 C   0  0  0  0  0  0  0  0  0  0  0  0
   20.8824  -13.8984   -4.0824 C   0  0  0  0  0  0  0  0  0  0  0  0
   20.8589  -15.4777   -4.8454 Cl  0  0  0  0  0  0  0  0  0  0  0  0
   21.8172  -13.6243   -3.0902 C   0  0  0  0  0  0  0  0  0  0  0  0
   21.8399  -12.3698   -2.4830 C   0  0  0  0  0  0  0  0  0  0  0  0
   21.4763  -10.0298   -0.0263 C   0  0  0  0  0  0  0  0  0  0  0  0
   22.3998   -9.6838    0.9557 C   0  0  0  0  0  0  0  0  0  0  0  0
   25.4700   -7.5202    3.5803 C   0  0  0  0  0  0  0  0  0  0  0  0
   26.6459   -7.4524    3.2606 O   0  0  0  0  0  0  0  0  0  0  0  0
   23.0894   -6.8837    6.1167 O   0  0  0  0  0  0  0  0  0  0  0  0
   26.8551   -7.4544    6.3427 C   0  0  0  0  0  0  0  0  0  0  0  0
   27.8416   -6.9944    7.1997 C   0  0  0  0  0  0  0  0  0  0  0  0
   33.8141  -12.4774    3.5794 H   0  0  0  0  0  0  0  0  0  0  0  0
   33.1542  -12.6566    1.9221 H   0  0  0  0  0  0  0  0  0  0  0  0
   32.0852  -12.8788    3.3415 H   0  0  0  0  0  0  0  0  0  0  0  0
   30.6611  -11.1065    2.5134 H   0  0  0  0  0  0  0  0  0  0  0  0
   31.7523  -10.8189    1.1152 H   0  0  0  0  0  0  0  0  0  0  0  0
   30.5119   -8.8238    1.5742 H   0  0  0  0  0  0  0  0  0  0  0  0
   32.2051   -8.5211    1.9842 H   0  0  0  0  0  0  0  0  0  0  0  0
   32.7593   -8.9116    4.4388 H   0  0  0  0  0  0  0  0  0  0  0  0
   31.4944   -8.4154    5.5779 H   0  0  0  0  0  0  0  0  0  0  0  0
   32.7498   -6.6657    3.3731 H   0  0  0  0  0  0  0  0  0  0  0  0
   32.9933   -6.4760    5.1134 H   0  0  0  0  0  0  0  0  0  0  0  0
   30.4556   -6.2063    2.4427 H   0  0  0  0  0  0  0  0  0  0  0  0
   29.1797   -5.7077    3.5706 H   0  0  0  0  0  0  0  0  0  0  0  0
   28.9285   -8.1240    2.9541 H   0  0  0  0  0  0  0  0  0  0  0  0
   29.2113   -7.9253    4.6716 H   0  0  0  0  0  0  0  0  0  0  0  0
   30.6803   -6.4837    6.4214 H   0  0  0  0  0  0  0  0  0  0  0  0
   29.5656   -5.3575    5.6738 H   0  0  0  0  0  0  0  0  0  0  0  0
   31.1748   -3.5319    5.7702 H   0  0  0  0  0  0  0  0  0  0  0  0
   32.4671   -4.6047    6.2946 H   0  0  0  0  0  0  0  0  0  0  0  0
   31.5682   -3.2440    8.1666 H   0  0  0  0  0  0  0  0  0  0  0  0
   31.4164   -4.9751    8.4855 H   0  0  0  0  0  0  0  0  0  0  0  0
   29.0692   -3.4161    7.3442 H   0  0  0  0  0  0  0  0  0  0  0  0
   29.4202   -3.4209    9.0876 H   0  0  0  0  0  0  0  0  0  0  0  0
   26.9462   -3.7024    7.3300 H   0  0  0  0  0  0  0  0  0  0  0  0
   25.2146   -4.5354    5.7544 H   0  0  0  0  0  0  0  0  0  0  0  0
   25.6466   -8.5365    1.2325 H   0  0  0  0  0  0  0  0  0  0  0  0
   27.6609  -10.8789    1.8552 H   0  0  0  0  0  0  0  0  0  0  0  0
   27.1408  -12.4294    2.5363 H   0  0  0  0  0  0  0  0  0  0  0  0
   28.8310  -12.1766    4.0016 H   0  0  0  0  0  0  0  0  0  0  0  0
   30.4981  -12.5405    5.5451 H   0  0  0  0  0  0  0  0  0  0  0  0
   30.8500  -11.2305    6.7174 H   0  0  0  0  0  0  0  0  0  0  0  0
   31.3332  -11.0497    5.0027 H   0  0  0  0  0  0  0  0  0  0  0  0
   24.8607  -10.0862    4.2242 H   0  0  0  0  0  0  0  0  0  0  0  0
   24.4486  -11.4171    6.8522 H   0  0  0  0  0  0  0  0  0  0  0  0
   23.3343  -11.6379    5.4763 H   0  0  0  0  0  0  0  0  0  0  0  0
   23.4669  -10.0364    6.2675 H   0  0  0  0  0  0  0  0  0  0  0  0
   24.8693   -8.4469   -1.0226 H   0  0  0  0  0  0  0  0  0  0  0  0
   23.2092   -9.0556   -2.7861 H   0  0  0  0  0  0  0  0  0  0  0  0
   19.2731  -10.9029   -4.1652 H   0  0  0  0  0  0  0  0  0  0  0  0
   19.2313  -13.1561   -5.2583 H   0  0  0  0  0  0  0  0  0  0  0  0
   22.5331  -14.3883   -2.7841 H   0  0  0  0  0  0  0  0  0  0  0  0
   22.5741  -12.1588   -1.7038 H   0  0  0  0  0  0  0  0  0  0  0  0
   20.5252  -10.4967    0.2357 H   0  0  0  0  0  0  0  0  0  0  0  0
   22.1768   -9.9117    1.9993 H   0  0  0  0  0  0  0  0  0  0  0  0
   26.8474   -8.5063    6.0557 H   0  0  0  0  0  0  0  0  0  0  0  0
   28.6026   -7.6837    7.5668 H   0  0  0  0  0  0  0  0  0  0  0  0
  1  2  1  0  0  0  0
  1 58  1  0  0  0  0
  1 56  1  0  0  0  0
  3  4  1  0  0  0  0
  3 59  1  0  0  0  0
  3  2  1  0  0  0  0
  4  5  1  0  0  0  0
  5 10  1  0  0  0  0
  5  6  1  0  0  0  0
  6 64  1  0  0  0  0
  7  8  1  0  0  0  0
  7  6  1  0  0  0  0
  7 66  1  0  0  0  0
  8 11  1  0  0  0  0
  9 68  1  0  0  0  0
  9 10  1  0  0  0  0
  9  8  1  0  0  0  0
 10 70  1  0  0  0  0
 11 12  1  0  0  0  0
 11 71  1  0  0  0  0
 12 13  1  0  0  0  0
 13 14  1  0  0  0  0
 13 75  1  0  0  0  0
 13 76  1  0  0  0  0
 14 15  1  0  0  0  0
 14 78  1  0  0  0  0
 16 15  1  0  0  0  0
 17 79  1  0  0  0  0
 17 16  2  0  0  0  0
 18 17  1  0  0  0  0
 19 18  2  0  0  0  0
 19 54  1  0  0  0  0
 20 21  1  0  0  0  0
 20 19  1  0  0  0  0
 21 53  2  0  0  0  0
 22 21  1  0  0  0  0
 23 24  1  1  0  0  0
 23 51  1  0  0  0  0
 23 22  1  0  0  0  0
 25 26  1  0  0  0  0
 26 27  1  0  0  0  0
 27 28  1  6  0  0  0
 27 29  1  0  0  0  0
 27 33  1  0  0  0  0
 29 30  1  0  0  0  0
 30 31  1  0  0  0  0
 30 32  2  0  0  0  0
 31 86  1  0  0  0  0
 33 34  1  0  0  0  0
 33 36  2  0  0  0  0
 34 35  1  0  0  0  0
 35 91  1  0  0  0  0
 35 89  1  0  0  0  0
 37 50  1  0  0  0  0
 37 24  1  0  0  0  0
 38 37  2  0  0  0  0
 39 40  2  0  0  0  0
 39 38  1  0  0  0  0
 40 49  1  0  0  0  0
 41 40  1  0  0  0  0
 42 48  1  0  0  0  0
 42 41  1  0  0  0  0
 43 42  2  0  0  0  0
 44 45  2  0  0  0  0
 44 43  1  0  0  0  0
 45 47  1  0  0  0  0
 46 45  1  0  0  0  0
 47 96  1  0  0  0  0
 47 48  2  0  0  0  0
 48 97  1  0  0  0  0
 49 98  1  0  0  0  0
 49 50  2  0  0  0  0
 50 99  1  0  0  0  0
 51 20  1  0  0  0  0
 52 51  2  0  0  0  0
 54 55  2  0  0  0  0
 55 16  1  0  0  0  0
 55101  1  0  0  0  0
 57  1  1  0  0  0  0
 60  3  1  0  0  0  0
 61  4  1  0  0  0  0
 62  4  1  0  0  0  0
 63  6  1  0  0  0  0
 65  7  1  0  0  0  0
 67  9  1  0  0  0  0
 69 10  1  0  0  0  0
 72 11  1  0  0  0  0
 73 12  1  0  0  0  0
 74 12  1  0  0  0  0
 77 14  1  0  0  0  0
 80 18  1  0  0  0  0
 81 24  1  0  0  0  0
 82 26  1  0  0  0  0
 83 26  1  0  0  0  0
 84 29  1  0  0  0  0
 85 31  1  0  0  0  0
 87 31  1  0  0  0  0
 88 34  1  0  0  0  0
 90 35  1  0  0  0  0
 92 38  1  0  0  0  0
 93 39  1  0  0  0  0
 94 43  1  0  0  0  0
 95 44  1  0  0  0  0
100 54  1  0  0  0  0
M  END
