-1 1
 OpenBabel05232413493D

101104  0  0  1  0  0  0  0  0999 V2000
    5.9164   -3.1263   -0.7585 C   0  0  0  0  0  0  0  0  0  0  0  0
    5.5705   -1.7809   -0.7088 O   0  0  0  0  0  0  0  0  0  0  0  0
    4.2712   -1.5252   -1.1910 C   0  0  0  0  0  0  0  0  0  0  0  0
    3.9026   -0.0589   -1.0454 C   0  0  0  0  0  0  0  0  0  0  0  0
    3.6938    0.3404    0.3279 N   0  0  0  0  0  0  0  0  0  0  0  0
    4.8953    0.6388    1.0960 C   0  0  0  0  0  0  0  0  0  0  0  0
    5.3811    2.0806    0.8958 C   0  0  0  0  0  0  0  0  0  0  0  0
    4.3475    3.0734    1.1673 N   0  0  0  0  0  0  0  0  0  0  0  0
    3.1576    2.7753    0.3701 C   0  0  0  0  0  0  0  0  0  0  0  0
    2.6581    1.3413    0.5643 C   0  0  0  0  0  0  0  0  0  0  0  0
    4.0897    3.2658    2.5846 C   0  0  0  0  0  0  0  0  0  0  0  0
    5.0845    4.2363    3.2247 C   0  0  0  0  0  0  0  0  0  0  0  0
    5.0999    4.2477    4.7556 C   0  0  0  0  0  0  0  0  0  0  0  0
    3.7782    4.5701    5.4510 C   0  0  0  0  0  0  0  0  0  0  0  0
    2.9686    3.4182    5.5953 O   0  0  0  0  0  0  0  0  0  0  0  0
    1.8445    3.2496    4.8564 C   0  0  0  0  0  0  0  0  0  0  0  0
    0.9967    4.3027    4.4953 C   0  0  0  0  0  0  0  0  0  0  0  0
   -0.0798    4.0609    3.6460 C   0  0  0  0  0  0  0  0  0  0  0  0
   -0.3209    2.7746    3.1772 C   0  0  0  0  0  0  0  0  0  0  0  0
   -1.3307    2.5527    2.1921 N   0  0  0  0  0  0  0  0  0  0  0  0
   -2.4845    1.8343    2.4690 C   0  0  0  0  0  0  0  0  0  0  0  0
   -3.4098    1.5700    0.9583 S   0  0  0  0  0  0  0  0  0  0  0  0
   -2.1897    2.3922   -0.0067 C   0  0  0  0  0  0  0  0  0  0  0  0
   -2.0085    2.3880   -1.3387 C   0  0  0  0  0  0  0  0  0  0  0  0
   -0.6867   -0.8259   -1.3745 S   0  0  0  0  0  1  0  0  0  0  0  0
    0.4353   -1.9703   -0.5010 C   0  0  0  0  0  0  0  0  0  0  0  0
    0.6551   -1.6665    0.9968 C   0  0  2  0  0  0  0  0  0  0  0  0
    0.7936   -0.5822    1.1075 H   0  0  0  0  0  0  0  0  0  0  0  0
    1.8688   -2.2973    1.4554 N   0  0  0  0  0  0  0  0  0  0  0  0
    2.6736   -1.7761    2.4082 C   0  0  0  0  0  0  0  0  0  0  0  0
    3.9792   -2.5205    2.6054 C   0  0  0  0  0  0  0  0  0  0  0  0
    2.4225   -0.7493    3.0199 O   0  0  0  0  0  0  0  0  0  0  0  0
   -0.5307   -2.0990    1.8758 C   0  0  0  0  0  0  0  0  0  0  0  0
   -1.6830   -1.4436    1.5953 N   0  0  0  0  0  0  0  0  0  0  0  0
   -2.9328   -1.8102    2.2127 C   0  0  0  0  0  0  0  0  0  0  0  0
   -0.4145   -2.9538    2.7388 O   0  0  0  0  0  0  0  0  0  0  0  0
   -2.7321    1.6488   -2.3664 C   0  0  0  0  0  0  0  0  0  0  0  0
   -2.0391    1.3604   -3.5536 C   0  0  0  0  0  0  0  0  0  0  0  0
   -2.5499    0.4656   -4.4814 C   0  0  0  0  0  0  0  0  0  0  0  0
   -3.7711   -0.1525   -4.2276 C   0  0  0  0  0  0  0  0  0  0  0  0
   -4.2389   -1.1232   -5.0800 O   0  0  0  0  0  0  0  0  0  0  0  0
   -3.7175   -2.3791   -4.9575 C   0  0  0  0  0  0  0  0  0  0  0  0
   -4.1788   -3.3272   -5.8762 C   0  0  0  0  0  0  0  0  0  0  0  0
   -3.7118   -4.6354   -5.8253 C   0  0  0  0  0  0  0  0  0  0  0  0
   -2.7799   -4.9881   -4.8512 C   0  0  0  0  0  0  0  0  0  0  0  0
   -2.1863   -6.6396   -4.7875 Cl  0  0  0  0  0  0  0  0  0  0  0  0
   -2.3164   -4.0501   -3.9350 C   0  0  0  0  0  0  0  0  0  0  0  0
   -2.7829   -2.7373   -3.9800 C   0  0  0  0  0  0  0  0  0  0  0  0
   -4.5224    0.1850   -3.1058 C   0  0  0  0  0  0  0  0  0  0  0  0
   -4.0043    1.0851   -2.1824 C   0  0  0  0  0  0  0  0  0  0  0  0
   -1.1273    2.9545    0.8665 C   0  0  0  0  0  0  0  0  0  0  0  0
   -0.1935    3.6276    0.5068 O   0  0  0  0  0  0  0  0  0  0  0  0
   -2.8430    1.4517    3.5456 O   0  0  0  0  0  0  0  0  0  0  0  0
    0.4822    1.7115    3.5901 C   0  0  0  0  0  0  0  0  0  0  0  0
    1.5569    1.9479    4.4340 C   0  0  0  0  0  0  0  0  0  0  0  0
    6.9413   -3.2320   -0.3751 H   0  0  0  0  0  0  0  0  0  0  0  0
    5.8838   -3.5251   -1.7928 H   0  0  0  0  0  0  0  0  0  0  0  0
    5.2432   -3.7507   -0.1370 H   0  0  0  0  0  0  0  0  0  0  0  0
    3.5354   -2.1269   -0.6259 H   0  0  0  0  0  0  0  0  0  0  0  0
    4.2068   -1.8170   -2.2603 H   0  0  0  0  0  0  0  0  0  0  0  0
    2.9528    0.0753   -1.5876 H   0  0  0  0  0  0  0  0  0  0  0  0
    4.6639    0.5494   -1.5829 H   0  0  0  0  0  0  0  0  0  0  0  0
    5.6852   -0.0725    0.8202 H   0  0  0  0  0  0  0  0  0  0  0  0
    4.6570    0.4695    2.1610 H   0  0  0  0  0  0  0  0  0  0  0  0
    5.7195    2.2140   -0.1479 H   0  0  0  0  0  0  0  0  0  0  0  0
    6.2596    2.2750    1.5337 H   0  0  0  0  0  0  0  0  0  0  0  0
    3.4150    2.9379   -0.6930 H   0  0  0  0  0  0  0  0  0  0  0  0
    2.3542    3.4849    0.6189 H   0  0  0  0  0  0  0  0  0  0  0  0
    1.7922    1.1367   -0.0863 H   0  0  0  0  0  0  0  0  0  0  0  0
    2.3122    1.2149    1.6037 H   0  0  0  0  0  0  0  0  0  0  0  0
    4.0826    2.3166    3.1591 H   0  0  0  0  0  0  0  0  0  0  0  0
    3.0725    3.6704    2.6846 H   0  0  0  0  0  0  0  0  0  0  0  0
    4.8831    5.2508    2.8397 H   0  0  0  0  0  0  0  0  0  0  0  0
    6.1009    3.9843    2.8794 H   0  0  0  0  0  0  0  0  0  0  0  0
    5.8420    4.9922    5.0910 H   0  0  0  0  0  0  0  0  0  0  0  0
    5.4427    3.2727    5.1415 H   0  0  0  0  0  0  0  0  0  0  0  0
    3.2485    5.3670    4.9030 H   0  0  0  0  0  0  0  0  0  0  0  0
    3.9734    4.9462    6.4681 H   0  0  0  0  0  0  0  0  0  0  0  0
    1.1821    5.3170    4.8512 H   0  0  0  0  0  0  0  0  0  0  0  0
   -0.7223    4.8819    3.3238 H   0  0  0  0  0  0  0  0  0  0  0  0
   -1.1029    2.9112   -1.6602 H   0  0  0  0  0  0  0  0  0  0  0  0
    1.4281   -1.9245   -0.9736 H   0  0  0  0  0  0  0  0  0  0  0  0
    0.0855   -3.0152   -0.5981 H   0  0  0  0  0  0  0  0  0  0  0  0
    2.0435   -3.2424    1.1437 H   0  0  0  0  0  0  0  0  0  0  0  0
    3.8654   -3.6099    2.5000 H   0  0  0  0  0  0  0  0  0  0  0  0
    4.3834   -2.2866    3.5974 H   0  0  0  0  0  0  0  0  0  0  0  0
    4.6848   -2.1647    1.8375 H   0  0  0  0  0  0  0  0  0  0  0  0
   -1.6958   -0.9419    0.6933 H   0  0  0  0  0  0  0  0  0  0  0  0
   -3.3482   -0.9797    2.8060 H   0  0  0  0  0  0  0  0  0  0  0  0
   -2.7506   -2.6592    2.8851 H   0  0  0  0  0  0  0  0  0  0  0  0
   -3.6726   -2.1060    1.4517 H   0  0  0  0  0  0  0  0  0  0  0  0
   -1.0478    1.7892   -3.7092 H   0  0  0  0  0  0  0  0  0  0  0  0
   -1.9805    0.1868   -5.3692 H   0  0  0  0  0  0  0  0  0  0  0  0
   -4.9082   -3.0194   -6.6273 H   0  0  0  0  0  0  0  0  0  0  0  0
   -4.0682   -5.3793   -6.5393 H   0  0  0  0  0  0  0  0  0  0  0  0
   -1.5846   -4.3253   -3.1740 H   0  0  0  0  0  0  0  0  0  0  0  0
   -2.3845   -2.0250   -3.2452 H   0  0  0  0  0  0  0  0  0  0  0  0
   -5.4874   -0.2980   -2.9457 H   0  0  0  0  0  0  0  0  0  0  0  0
   -4.5959    1.3263   -1.2985 H   0  0  0  0  0  0  0  0  0  0  0  0
    0.3151    0.7009    3.2129 H   0  0  0  0  0  0  0  0  0  0  0  0
    2.2267    1.1275    4.6925 H   0  0  0  0  0  0  0  0  0  0  0  0
  1  2  1  0  0  0  0
  1 56  1  0  0  0  0
  1 58  1  0  0  0  0
  3  4  1  0  0  0  0
  3  2  1  0  0  0  0
  3 59  1  0  0  0  0
  4  5  1  0  0  0  0
  5 10  1  0  0  0  0
  5  6  1  0  0  0  0
  6 64  1  0  0  0  0
  7  6  1  0  0  0  0
  7  8  1  0  0  0  0
  7 66  1  0  0  0  0
  8 11  1  0  0  0  0
  9 10  1  0  0  0  0
  9 68  1  0  0  0  0
  9  8  1  0  0  0  0
 10 70  1  0  0  0  0
 11 72  1  0  0  0  0
 11 71  1  0  0  0  0
 11 12  1  0  0  0  0
 12 13  1  0  0  0  0
 13 75  1  0  0  0  0
 13 76  1  0  0  0  0
 13 14  1  0  0  0  0
 14 15  1  0  0  0  0
 14 78  1  0  0  0  0
 16 15  1  0  0  0  0
 17 79  1  0  0  0  0
 17 16  1  0  0  0  0
 18 17  2  0  0  0  0
 19 54  2  0  0  0  0
 19 18  1  0  0  0  0
 20 21  1  0  0  0  0
 20 19  1  0  0  0  0
 21 53  2  0  0  0  0
 22 21  1  0  0  0  0
 23 51  1  0  0  0  0
 23 22  1  0  0  0  0
 24 23  2  0  0  0  0
 25 26  1  0  0  0  0
 26 27  1  0  0  0  0
 27 28  1  1  0  0  0
 27 29  1  0  0  0  0
 27 33  1  0  0  0  0
 29 30  1  0  0  0  0
 30 31  1  0  0  0  0
 30 32  2  0  0  0  0
 31 86  1  0  0  0  0
 33 36  2  0  0  0  0
 34 33  1  0  0  0  0
 34 35  1  0  0  0  0
 35 89  1  0  0  0  0
 35 90  1  0  0  0  0
 37 50  1  0  0  0  0
 37 24  1  0  0  0  0
 38 37  2  0  0  0  0
 39 40  2  0  0  0  0
 39 38  1  0  0  0  0
 40 49  1  0  0  0  0
 41 42  1  0  0  0  0
 41 40  1  0  0  0  0
 42 48  1  0  0  0  0
 43 44  1  0  0  0  0
 43 42  2  0  0  0  0
 44 45  2  0  0  0  0
 45 46  1  0  0  0  0
 45 47  1  0  0  0  0
 47 96  1  0  0  0  0
 48 47  2  0  0  0  0
 48 97  1  0  0  0  0
 49 98  1  0  0  0  0
 49 50  2  0  0  0  0
 50 99  1  0  0  0  0
 51 20  1  0  0  0  0
 52 51  2  0  0  0  0
 54 55  1  0  0  0  0
 55101  1  0  0  0  0
 55 16  2  0  0  0  0
 57  1  1  0  0  0  0
 60  3  1  0  0  0  0
 61  4  1  0  0  0  0
 62  4  1  0  0  0  0
 63  6  1  0  0  0  0
 65  7  1  0  0  0  0
 67  9  1  0  0  0  0
 69 10  1  0  0  0  0
 73 12  1  0  0  0  0
 74 12  1  0  0  0  0
 77 14  1  0  0  0  0
 80 18  1  0  0  0  0
 81 24  1  0  0  0  0
 82 26  1  0  0  0  0
 83 26  1  0  0  0  0
 84 29  1  0  0  0  0
 85 31  1  0  0  0  0
 87 31  1  0  0  0  0
 88 34  1  0  0  0  0
 91 35  1  0  0  0  0
 92 38  1  0  0  0  0
 93 39  1  0  0  0  0
 94 43  1  0  0  0  0
 95 44  1  0  0  0  0
100 54  1  0  0  0  0
M  END
