82
-1 1
O         1.602806   -0.445192   -3.990609
C         1.450187   -0.876338   -2.810398
N         0.088411   -0.909769   -2.352916
C        -0.234997   -0.236498   -1.117525
H         0.265045   -0.761403   -0.286711
C        -1.739561   -0.252235   -0.839466
C        -2.081887    0.489667    0.457558
C        -1.445769    1.883042    0.499057
N        -0.015838    1.790929    0.234660
C         0.266454    1.215634   -1.068407
C         0.850493    1.616745    1.276653
N         0.397179    1.960877    2.489768
C         1.162819    1.861213    3.546772
O         0.576320    2.211165    4.741761
C        -0.788790    2.399540    4.733399
C        -1.639649    1.296081    4.691722
C        -3.014509    1.489625    4.651182
C        -3.528455    2.787112    4.655031
O        -4.886400    2.987711    4.596573
C        -5.520663    2.849157    3.396659
C        -4.845672    2.713050    2.180450
C        -5.580026    2.588239    1.001082
C        -6.972707    2.601638    1.020598
C        -7.635850    2.743842    2.241132
C        -6.918384    2.866227    3.426466
C        -2.679500    3.886644    4.732141
C        -1.299575    3.690894    4.771399
C         2.495012    1.427782    3.528592
C         3.442474    1.301458    4.681537
N         2.973092    1.644492    5.911036
O         4.586013    0.910917    4.518479
C         2.956396    1.038855    2.256371
C         2.166252    1.105442    1.127683
C         2.463505   -1.331154   -1.969991
C         2.286675   -2.408247   -0.973239
S         2.619646   -4.141307   -1.638795
C         1.543791   -4.198022   -3.107669
C         2.287157   -4.190007   -4.443162
H         3.166271   -4.853201   -4.369226
N         2.789660   -2.877091   -4.799051
C         3.910367   -2.704543   -5.519210
C         4.388183   -1.272805   -5.616183
O         4.520996   -3.631554   -6.060253
C         1.408299   -4.767826   -5.575062
N         2.104894   -4.978298   -6.721360
C         1.477241   -5.427738   -7.932513
O         0.222752   -5.021071   -5.443582
H        -0.480822   -0.574028   -3.126726
H        -2.096558   -1.292927   -0.805574
H        -2.258352    0.233371   -1.688132
H        -1.706313   -0.082854    1.322828
H        -3.174045    0.573431    0.583544
H        -1.594571    2.359911    1.475157
H        -1.891609    2.529338   -0.276740
H         1.336123    1.255279   -1.302262
H        -0.254584    1.815976   -1.833822
H        -1.212544    0.292523    4.659814
H        -3.699875    0.642074    4.594165
H        -3.755868    2.702153    2.149961
H        -5.044844    2.478959    0.054841
H        -7.538335    2.500928    0.092523
H        -8.727855    2.755628    2.272582
H        -7.419096    2.974255    4.390099
H        -3.108600    4.889834    4.737444
H        -0.609501    4.535271    4.797307
H         2.020309    1.952356    6.045898
H         3.609286    1.545823    6.688991
H         3.976629    0.653830    2.198744
H         2.532724    0.725138    0.172258
H         3.470918   -1.226708   -2.384464
H         1.273301   -2.452201   -0.552446
H         2.993972   -2.364591   -0.128730
H         0.826108   -3.366071   -3.049921
H         0.953162   -5.121184   -3.054470
H         2.288619   -2.023216   -4.492579
H         3.666204   -0.574723   -5.169350
H         4.578309   -1.026973   -6.670563
H         5.346893   -1.200883   -5.080877
H         3.089501   -4.693488   -6.716922
H         1.516131   -4.660325   -8.724586
H         0.424698   -5.645990   -7.708068
H         1.953901   -6.343805   -8.319656
