-1 1
 OpenBabel05232414493D

 82 84  0  0  1  0  0  0  0  0999 V2000
   -6.3201   -3.4116    2.5276 O   0  0  0  0  0  0  0  0  0  0  0  0
   -6.8380   -3.6867    3.6303 C   0  0  0  0  0  0  0  0  0  0  0  0
   -7.7469   -2.7446    4.1091 N   0  0  0  0  0  0  0  0  0  0  0  0
   -8.2783   -2.5708    5.4300 C   0  0  2  0  0  0  0  0  0  0  0  0
   -7.6585   -3.1600    6.1234 H   0  0  0  0  0  0  0  0  0  0  0  0
   -9.7463   -3.0094    5.5503 C   0  0  0  0  0  0  0  0  0  0  0  0
  -10.3230   -2.7004    6.9309 C   0  0  0  0  0  0  0  0  0  0  0  0
  -10.0974   -1.2332    7.2934 C   0  0  0  0  0  0  0  0  0  0  0  0
   -8.6779   -0.9040    7.2003 N   0  0  0  0  0  0  0  0  0  0  0  0
   -8.1364   -1.1037    5.8678 C   0  0  0  0  0  0  0  0  0  0  0  0
   -7.8982   -0.9325    8.3202 C   0  0  0  0  0  0  0  0  0  0  0  0
   -8.5440   -1.0364    9.4889 N   0  0  0  0  0  0  0  0  0  0  0  0
   -7.8955   -1.0533   10.6259 C   0  0  0  0  0  0  0  0  0  0  0  0
   -8.6645   -1.1899   11.7527 O   0  0  0  0  0  0  0  0  0  0  0  0
  -10.0184   -1.3966   11.5741 C   0  0  0  0  0  0  0  0  0  0  0  0
  -10.4868   -2.6538   11.1967 C   0  0  0  0  0  0  0  0  0  0  0  0
  -11.8470   -2.8456   10.9922 C   0  0  0  0  0  0  0  0  0  0  0  0
  -12.7294   -1.7774   11.1680 C   0  0  0  0  0  0  0  0  0  0  0  0
  -14.0748   -1.9497   10.9641 O   0  0  0  0  0  0  0  0  0  0  0  0
  -14.5356   -2.1259    9.6904 C   0  0  0  0  0  0  0  0  0  0  0  0
  -13.7772   -1.8328    8.5540 C   0  0  0  0  0  0  0  0  0  0  0  0
  -14.3349   -2.0293    7.2908 C   0  0  0  0  0  0  0  0  0  0  0  0
  -15.6365   -2.5054    7.1507 C   0  0  0  0  0  0  0  0  0  0  0  0
  -16.3872   -2.7860    8.2937 C   0  0  0  0  0  0  0  0  0  0  0  0
  -15.8434   -2.6006    9.5608 C   0  0  0  0  0  0  0  0  0  0  0  0
  -12.2622   -0.5318   11.5751 C   0  0  0  0  0  0  0  0  0  0  0  0
  -10.8961   -0.3404   11.7799 C   0  0  0  0  0  0  0  0  0  0  0  0
   -6.5026   -0.9472   10.7489 C   0  0  0  0  0  0  0  0  0  0  0  0
   -5.6782   -0.9432   11.9997 C   0  0  0  0  0  0  0  0  0  0  0  0
   -6.3398   -1.0800   13.1783 N   0  0  0  0  0  0  0  0  0  0  0  0
   -4.4658   -0.8192   11.9521 O   0  0  0  0  0  0  0  0  0  0  0  0
   -5.8245   -0.8437    9.5221 C   0  0  0  0  0  0  0  0  0  0  0  0
   -6.4821   -0.8433    8.3095 C   0  0  0  0  0  0  0  0  0  0  0  0
   -6.5619   -4.9017    4.3431 C   0  0  0  0  0  3  0  0  0  0  0  0
   -7.3613   -5.6055    5.2645 C   0  0  0  0  0  3  0  0  0  0  0  0
   -9.1209   -6.7119    4.3429 S   0  0  0  0  0  1  0  0  0  0  0  0
   -8.7632   -6.1488    2.6620 C   0  0  0  0  0  0  0  0  0  0  0  0
   -7.6041   -6.9123    1.9780 C   0  0  2  0  0  0  0  0  0  0  0  0
   -6.9924   -7.3862    2.7649 H   0  0  0  0  0  0  0  0  0  0  0  0
   -6.7736   -6.0179    1.2110 N   0  0  0  0  0  0  0  0  0  0  0  0
   -5.5788   -6.4619    0.7367 C   0  0  0  0  0  0  0  0  0  0  0  0
   -4.6951   -5.3617    0.1773 C   0  0  0  0  0  0  0  0  0  0  0  0
   -5.2462   -7.6349    0.7527 O   0  0  0  0  0  0  0  0  0  0  0  0
   -8.1941   -8.0362    1.1202 C   0  0  0  0  0  0  0  0  0  0  0  0
   -8.6038   -9.0969    1.8764 N   0  0  0  0  0  0  0  0  0  0  0  0
   -9.3481  -10.1917    1.3193 C   0  0  0  0  0  0  0  0  0  0  0  0
   -8.3451   -7.9713   -0.0832 O   0  0  0  0  0  0  0  0  0  0  0  0
   -7.9056   -2.0063    3.4333 H   0  0  0  0  0  0  0  0  0  0  0  0
   -9.8345   -4.0788    5.2992 H   0  0  0  0  0  0  0  0  0  0  0  0
  -10.3210   -2.4611    4.7807 H   0  0  0  0  0  0  0  0  0  0  0  0
   -9.8344   -3.3276    7.6965 H   0  0  0  0  0  0  0  0  0  0  0  0
  -11.3980   -2.9386    6.9675 H   0  0  0  0  0  0  0  0  0  0  0  0
  -10.4426   -1.0053    8.3080 H   0  0  0  0  0  0  0  0  0  0  0  0
  -10.6393   -0.5819    6.5849 H   0  0  0  0  0  0  0  0  0  0  0  0
   -7.0875   -0.7930    5.8120 H   0  0  0  0  0  0  0  0  0  0  0  0
   -8.6982   -0.4561    5.1695 H   0  0  0  0  0  0  0  0  0  0  0  0
   -9.7763   -3.4661   11.0369 H   0  0  0  0  0  0  0  0  0  0  0  0
  -12.2337   -3.8155   10.6741 H   0  0  0  0  0  0  0  0  0  0  0  0
  -12.7572   -1.4593    8.6515 H   0  0  0  0  0  0  0  0  0  0  0  0
  -13.7342   -1.8071    6.4058 H   0  0  0  0  0  0  0  0  0  0  0  0
  -16.0617   -2.6617    6.1578 H   0  0  0  0  0  0  0  0  0  0  0  0
  -17.4084   -3.1622    8.1988 H   0  0  0  0  0  0  0  0  0  0  0  0
  -16.4119   -2.8212   10.4657 H   0  0  0  0  0  0  0  0  0  0  0  0
  -12.9744    0.2836   11.7096 H   0  0  0  0  0  0  0  0  0  0  0  0
  -10.4997    0.6337   12.0699 H   0  0  0  0  0  0  0  0  0  0  0  0
   -7.3428   -1.1991   13.2101 H   0  0  0  0  0  0  0  0  0  0  0  0
   -5.7822   -1.0953   14.0201 H   0  0  0  0  0  0  0  0  0  0  0  0
   -4.7357   -0.7723    9.5676 H   0  0  0  0  0  0  0  0  0  0  0  0
   -5.9145   -0.7838    7.3839 H   0  0  0  0  0  0  0  0  0  0  0  0
   -5.7632   -5.4676    3.8569 H   0  0  0  0  0  0  0  0  0  0  0  0
   -8.0063   -5.0866    5.9729 H   0  0  0  0  0  0  0  0  0  0  0  0
   -6.9003   -6.4915    5.7063 H   0  0  0  0  0  0  0  0  0  0  0  0
   -8.5008   -5.0836    2.7159 H   0  0  0  0  0  0  0  0  0  0  0  0
   -9.6804   -6.2120    2.0574 H   0  0  0  0  0  0  0  0  0  0  0  0
   -6.7957   -5.0293    1.4773 H   0  0  0  0  0  0  0  0  0  0  0  0
   -4.7212   -4.4812    0.8371 H   0  0  0  0  0  0  0  0  0  0  0  0
   -5.0669   -5.0592   -0.8138 H   0  0  0  0  0  0  0  0  0  0  0  0
   -3.6721   -5.7435    0.0740 H   0  0  0  0  0  0  0  0  0  0  0  0
   -8.5823   -8.9722    2.8854 H   0  0  0  0  0  0  0  0  0  0  0  0
   -8.9136  -11.1627    1.6086 H   0  0  0  0  0  0  0  0  0  0  0  0
   -9.3067  -10.0975    0.2261 H   0  0  0  0  0  0  0  0  0  0  0  0
  -10.4071  -10.1786    1.6315 H   0  0  0  0  0  0  0  0  0  0  0  0
  1  2  2  0  0  0  0
  2  3  1  0  0  0  0
  2 34  1  0  0  0  0
  3  4  1  0  0  0  0
  4  6  1  0  0  0  0
  4 10  1  0  0  0  0
  4  5  1  1  0  0  0
  6  7  1  0  0  0  0
  7 52  1  0  0  0  0
  7  8  1  0  0  0  0
  7 51  1  0  0  0  0
  8 53  1  0  0  0  0
  9  8  1  0  0  0  0
  9 11  1  0  0  0  0
 10  9  1  0  0  0  0
 11 12  1  0  0  0  0
 12 13  2  0  0  0  0
 13 28  1  0  0  0  0
 13 14  1  0  0  0  0
 15 14  1  0  0  0  0
 15 27  1  0  0  0  0
 16 15  2  0  0  0  0
 17 18  2  0  0  0  0
 17 16  1  0  0  0  0
 18 26  1  0  0  0  0
 19 18  1  0  0  0  0
 20 19  1  0  0  0  0
 21 59  1  0  0  0  0
 21 20  2  0  0  0  0
 22 21  1  0  0  0  0
 23 22  2  0  0  0  0
 23 24  1  0  0  0  0
 24 25  2  0  0  0  0
 25 20  1  0  0  0  0
 25 63  1  0  0  0  0
 26 64  1  0  0  0  0
 26 27  2  0  0  0  0
 27 65  1  0  0  0  0
 28 29  1  0  0  0  0
 29 30  1  0  0  0  0
 30 66  1  0  0  0  0
 30 67  1  0  0  0  0
 31 29  2  0  0  0  0
 32 68  1  0  0  0  0
 32 28  2  0  0  0  0
 33 11  2  0  0  0  0
 33 32  1  0  0  0  0
 34 35  1  0  0  0  0
 35 72  1  0  0  0  0
 35 71  1  0  0  0  0
 37 73  1  0  0  0  0
 37 36  1  0  0  0  0
 38 37  1  0  0  0  0
 38 39  1  1  0  0  0
 40 75  1  0  0  0  0
 40 38  1  0  0  0  0
 41 43  2  0  0  0  0
 41 40  1  0  0  0  0
 42 41  1  0  0  0  0
 42 76  1  0  0  0  0
 44 45  1  0  0  0  0
 44 38  1  0  0  0  0
 45 79  1  0  0  0  0
 46 80  1  0  0  0  0
 46 82  1  0  0  0  0
 46 45  1  0  0  0  0
 47 44  2  0  0  0  0
 48  3  1  0  0  0  0
 49  6  1  0  0  0  0
 50  6  1  0  0  0  0
 54  8  1  0  0  0  0
 55 10  1  0  0  0  0
 56 10  1  0  0  0  0
 57 16  1  0  0  0  0
 58 17  1  0  0  0  0
 60 22  1  0  0  0  0
 61 23  1  0  0  0  0
 62 24  1  0  0  0  0
 69 33  1  0  0  0  0
 70 34  1  0  0  0  0
 74 37  1  0  0  0  0
 77 42  1  0  0  0  0
 78 42  1  0  0  0  0
 81 46  1  0  0  0  0
M  END
