80
-1 1
O        -1.990608    1.062302   -2.916878
C        -0.930101    0.463451   -3.271424
N         0.208094    0.651258   -2.414729
C         1.493461    1.098197   -3.005100
C         1.121875    2.556931   -2.685156
C         0.238515    1.894201   -1.612450
C         1.045158    1.621171   -0.361076
N         2.343892    1.040766   -0.723678
C         2.610771    0.617445   -2.094957
C         3.237088    0.791191    0.263390
N         2.845649    1.109094    1.503968
C         3.631520    0.911136    2.532278
O         3.101848    1.223506    3.756845
C         1.727338    1.403584    3.794156
C         1.198843    2.684411    3.871971
C        -0.183367    2.862910    3.805022
C        -1.018538    1.757771    3.653223
O        -2.362833    1.955858    3.515254
C        -2.956047    1.293830    2.454713
C        -3.975978    0.383569    2.710770
C        -4.562664   -0.297087    1.640951
C        -4.134322   -0.065464    0.335990
C        -3.117893    0.859797    0.086175
C        -2.527749    1.539480    1.148928
C        -0.480291    0.467090    3.640650
C         0.893785    0.291635    3.709595
C         4.938581    0.403654    2.445579
C         5.910596    0.162890    3.558353
N         5.495725    0.465415    4.815753
O         7.025608   -0.282499    3.337170
C         5.345110    0.066647    1.142296
C         4.523998    0.230850    0.045672
C        -0.813473   -0.406352   -4.344822
C         0.192757   -1.481225   -4.489957
S         0.120469   -2.867984   -3.225471
C        -1.623594   -3.401115   -3.265600
C        -2.684736   -2.790143   -2.314567
H        -3.508494   -3.516170   -2.317806
N        -3.277676   -1.549378   -2.759485
C        -4.367309   -1.557565   -3.573045
C        -4.837328   -0.177583   -3.989995
O        -4.943099   -2.578560   -3.917935
C        -2.270924   -2.698088   -0.841117
N        -1.308461   -1.798571   -0.531515
C        -0.890896   -1.644779    0.836335
O        -2.819655   -3.380297    0.010855
H         1.661701    0.816030   -4.052140
H         0.512056    2.995139   -3.485479
H         1.916244    3.252919   -2.369657
H        -0.750258    2.317451   -1.398867
H         0.492311    0.939792    0.303394
H         1.212001    2.549235    0.208455
H         2.676482   -0.483784   -2.152567
H         3.572524    1.041420   -2.434697
H         1.874431    3.539219    3.930619
H        -0.626869    3.859667    3.823247
H        -4.284180    0.206187    3.742886
H        -5.344328   -1.034838    1.834150
H        -4.561677   -0.628795   -0.495594
H        -2.765126    1.028526   -0.938838
H        -1.720077    2.254984    0.976411
H        -1.145655   -0.390811    3.534969
H         1.332105   -0.706208    3.649857
H         4.562440    0.813291    4.991138
H         6.142269    0.286643    5.570507
H         6.349298   -0.349309    1.035592
H         4.858929   -0.063353   -0.947024
H        -1.725882   -0.519743   -4.934706
H         1.247862   -1.179848   -4.378827
H         0.110484   -1.963789   -5.475039
H        -1.575859   -4.478108   -3.045423
H        -2.001274   -3.302793   -4.294370
H        -2.779334   -0.656837   -2.667270
H        -5.695637    0.104834   -3.360189
H        -5.187181   -0.225430   -5.029822
H        -4.042281    0.573544   -3.873895
H        -0.751655   -1.365707   -1.267478
H        -0.356162   -2.535500    1.209574
H        -1.769353   -1.485707    1.480304
H        -0.228315   -0.775116    0.920995
