-1 1
 OpenBabel05232413493D

 80 83  0  0  1  0  0  0  0  0999 V2000
   -2.1877    1.1007   -2.9140 O   0  0  0  0  0  0  0  0  0  0  0  0
   -1.0809    1.1048   -3.4545 C   0  0  0  0  0  0  0  0  0  0  0  0
   -0.0094    1.6048   -2.8253 N   0  0  0  0  0  0  0  0  0  0  0  0
    1.4009    1.8876   -3.0821 C   0  0  1  0  0  0  0  0  0  0  0  0
    1.2333    3.1198   -2.1570 C   0  0  0  0  0  0  0  0  0  0  0  0
    0.0872    2.2812   -1.5351 C   0  0  2  0  0  0  0  0  0  0  0  0
    0.6470    1.3041   -0.5095 C   0  0  0  0  0  0  0  0  0  0  0  0
    1.9787    0.8802   -0.9437 N   0  0  0  0  0  0  0  0  0  0  0  0
    2.2702    0.8447   -2.3731 C   0  0  0  0  0  0  0  0  0  0  0  0
    2.8993    0.4975   -0.0216 C   0  0  0  0  0  0  0  0  0  0  0  0
    2.5947    0.7296    1.2626 N   0  0  0  0  0  0  0  0  0  0  0  0
    3.4603    0.4941    2.2159 C   0  0  0  0  0  0  0  0  0  0  0  0
    3.0531    0.7981    3.4909 O   0  0  0  0  0  0  0  0  0  0  0  0
    1.7294    1.1731    3.6450 C   0  0  0  0  0  0  0  0  0  0  0  0
    1.3580    2.5048    3.4955 C   0  0  0  0  0  0  0  0  0  0  0  0
    0.0080    2.8489    3.5248 C   0  0  0  0  0  0  0  0  0  0  0  0
   -0.9546    1.8568    3.7085 C   0  0  0  0  0  0  0  0  0  0  0  0
   -2.2831    2.1767    3.6138 O   0  0  0  0  0  0  0  0  0  0  0  0
   -2.9561    1.5187    2.5976 C   0  0  0  0  0  0  0  0  0  0  0  0
   -4.0907    0.7754    2.9082 C   0  0  0  0  0  0  0  0  0  0  0  0
   -4.7486    0.0818    1.8904 C   0  0  0  0  0  0  0  0  0  0  0  0
   -4.2793    0.1295    0.5789 C   0  0  0  0  0  0  0  0  0  0  0  0
   -3.1542    0.8968    0.2726 C   0  0  0  0  0  0  0  0  0  0  0  0
   -2.4940    1.5923    1.2831 C   0  0  0  0  0  0  0  0  0  0  0  0
   -0.5663    0.5386    3.9512 C   0  0  0  0  0  0  0  0  0  0  0  0
    0.7792    0.1940    3.9105 C   0  0  0  0  0  0  0  0  0  0  0  0
    4.7491   -0.0240    2.0080 C   0  0  0  0  0  0  0  0  0  0  0  0
    5.8048   -0.3129    3.0285 C   0  0  0  0  0  0  0  0  0  0  0  0
    5.4940   -0.0646    4.3279 N   0  0  0  0  0  0  0  0  0  0  0  0
    6.8970   -0.7498    2.7017 O   0  0  0  0  0  0  0  0  0  0  0  0
    5.0435   -0.3203    0.6652 C   0  0  0  0  0  0  0  0  0  0  0  0
    4.1494   -0.0837   -0.3577 C   0  0  0  0  0  0  0  0  0  0  0  0
   -0.9071    0.6734   -4.8758 C   0  0  0  0  0  0  0  0  0  0  0  0
   -0.1054   -0.3121   -5.2798 C   0  0  0  0  0  0  0  0  0  0  0  0
    0.5202   -2.0635   -2.2762 S   0  0  0  0  0  1  0  0  0  0  0  0
   -0.7642   -3.3716   -2.3794 C   0  0  0  0  0  0  0  0  0  0  0  0
   -2.1918   -3.0118   -1.9232 C   0  0  2  0  0  0  0  0  0  0  0  0
   -2.8272   -3.8925   -2.0945 H   0  0  0  0  0  0  0  0  0  0  0  0
   -2.7938   -1.9613   -2.7200 N   0  0  0  0  0  0  0  0  0  0  0  0
   -3.6816   -2.2332   -3.7097 C   0  0  0  0  0  0  0  0  0  0  0  0
   -4.1316   -1.0304   -4.5203 C   0  0  0  0  0  0  0  0  0  0  0  0
   -4.1000   -3.3529   -3.9574 O   0  0  0  0  0  0  0  0  0  0  0  0
   -2.3818   -2.6926   -0.4279 C   0  0  0  0  0  0  0  0  0  0  0  0
   -1.3346   -2.0873    0.1700 N   0  0  0  0  0  0  0  0  0  0  0  0
   -1.3257   -1.7413    1.5611 C   0  0  0  0  0  0  0  0  0  0  0  0
   -3.4277   -2.9598    0.1482 O   0  0  0  0  0  0  0  0  0  0  0  0
    1.6804    2.0120   -4.1375 H   0  0  0  0  0  0  0  0  0  0  0  0
    0.8498    3.9919   -2.7019 H   0  0  0  0  0  0  0  0  0  0  0  0
    2.0783    3.3916   -1.5096 H   0  0  0  0  0  0  0  0  0  0  0  0
   -0.8386    2.7687   -1.2002 H   0  0  0  0  0  0  0  0  0  0  0  0
   -0.0271    0.4341   -0.4269 H   0  0  0  0  0  0  0  0  0  0  0  0
    0.7380    1.7777    0.4767 H   0  0  0  0  0  0  0  0  0  0  0  0
    2.0907   -0.1573   -2.7998 H   0  0  0  0  0  0  0  0  0  0  0  0
    3.3254    1.1215   -2.5266 H   0  0  0  0  0  0  0  0  0  0  0  0
    2.1249    3.2538    3.2916 H   0  0  0  0  0  0  0  0  0  0  0  0
   -0.3184    3.8764    3.3553 H   0  0  0  0  0  0  0  0  0  0  0  0
   -4.4292    0.7306    3.9452 H   0  0  0  0  0  0  0  0  0  0  0  0
   -5.6186   -0.5323    2.1322 H   0  0  0  0  0  0  0  0  0  0  0  0
   -4.7600   -0.4641   -0.1994 H   0  0  0  0  0  0  0  0  0  0  0  0
   -2.7841    0.9434   -0.7560 H   0  0  0  0  0  0  0  0  0  0  0  0
   -1.5991    2.1791    1.0666 H   0  0  0  0  0  0  0  0  0  0  0  0
   -1.3326   -0.2228    4.1052 H   0  0  0  0  0  0  0  0  0  0  0  0
    1.0961   -0.8439    4.0241 H   0  0  0  0  0  0  0  0  0  0  0  0
    4.5810    0.2791    4.5932 H   0  0  0  0  0  0  0  0  0  0  0  0
    6.1979   -0.2803    5.0189 H   0  0  0  0  0  0  0  0  0  0  0  0
    6.0215   -0.7627    0.4644 H   0  0  0  0  0  0  0  0  0  0  0  0
    4.3862   -0.3716   -1.3798 H   0  0  0  0  0  0  0  0  0  0  0  0
   -1.5812    1.1853   -5.5718 H   0  0  0  0  0  0  0  0  0  0  0  0
    0.4709   -0.9009   -4.5505 H   0  0  0  0  0  0  0  0  0  0  0  0
   -0.0865   -0.6085   -6.3328 H   0  0  0  0  0  0  0  0  0  0  0  0
   -0.4411   -4.2475   -1.7916 H   0  0  0  0  0  0  0  0  0  0  0  0
   -0.8548   -3.7105   -3.4236 H   0  0  0  0  0  0  0  0  0  0  0  0
   -2.4208   -1.0188   -2.6403 H   0  0  0  0  0  0  0  0  0  0  0  0
   -5.2283   -1.0512   -4.5884 H   0  0  0  0  0  0  0  0  0  0  0  0
   -3.7352   -1.1404   -5.5412 H   0  0  0  0  0  0  0  0  0  0  0  0
   -3.7880   -0.0759   -4.1015 H   0  0  0  0  0  0  0  0  0  0  0  0
   -0.4911   -1.9275   -0.4100 H   0  0  0  0  0  0  0  0  0  0  0  0
   -0.9602   -2.5676    2.1997 H   0  0  0  0  0  0  0  0  0  0  0  0
   -2.3417   -1.4818    1.8919 H   0  0  0  0  0  0  0  0  0  0  0  0
   -0.6676   -0.8749    1.7118 H   0  0  0  0  0  0  0  0  0  0  0  0
  2  1  2  0  0  0  0
  2  3  1  0  0  0  0
  3  6  1  0  0  0  0
  4 47  1  6  0  0  0
  4  3  1  0  0  0  0
  4  9  1  0  0  0  0
  4  5  1  0  0  0  0
  5  6  1  0  0  0  0
  5 49  1  0  0  0  0
  6 50  1  1  0  0  0
  6  7  1  0  0  0  0
  7 51  1  0  0  0  0
  7 52  1  0  0  0  0
  8  7  1  0  0  0  0
  8 10  1  0  0  0  0
  9  8  1  0  0  0  0
 10 11  1  0  0  0  0
 11 12  2  0  0  0  0
 12 13  1  0  0  0  0
 13 14  1  0  0  0  0
 14 26  1  0  0  0  0
 15 16  1  0  0  0  0
 15 14  2  0  0  0  0
 16 17  2  0  0  0  0
 17 25  1  0  0  0  0
 18 17  1  0  0  0  0
 19 20  1  0  0  0  0
 19 18  1  0  0  0  0
 20 57  1  0  0  0  0
 21 58  1  0  0  0  0
 21 20  2  0  0  0  0
 22 21  1  0  0  0  0
 23 22  2  0  0  0  0
 23 24  1  0  0  0  0
 24 19  2  0  0  0  0
 25 62  1  0  0  0  0
 26 25  2  0  0  0  0
 26 63  1  0  0  0  0
 27 12  1  0  0  0  0
 27 28  1  0  0  0  0
 28 29  1  0  0  0  0
 29 64  1  0  0  0  0
 29 65  1  0  0  0  0
 30 28  2  0  0  0  0
 31 27  2  0  0  0  0
 32 10  2  0  0  0  0
 32 31  1  0  0  0  0
 33  2  1  0  0  0  0
 34 33  2  0  0  0  0
 34 69  1  0  0  0  0
 36 35  1  0  0  0  0
 36 37  1  0  0  0  0
 36 71  1  0  0  0  0
 37 38  1  6  0  0  0
 37 43  1  0  0  0  0
 39 73  1  0  0  0  0
 39 37  1  0  0  0  0
 40 39  1  0  0  0  0
 41 76  1  0  0  0  0
 41 40  1  0  0  0  0
 42 40  2  0  0  0  0
 43 46  2  0  0  0  0
 43 44  1  0  0  0  0
 44 45  1  0  0  0  0
 45 80  1  0  0  0  0
 45 79  1  0  0  0  0
 45 78  1  0  0  0  0
 48  5  1  0  0  0  0
 53  9  1  0  0  0  0
 54  9  1  0  0  0  0
 55 15  1  0  0  0  0
 56 16  1  0  0  0  0
 59 22  1  0  0  0  0
 60 23  1  0  0  0  0
 61 24  1  0  0  0  0
 66 31  1  0  0  0  0
 67 32  1  0  0  0  0
 68 33  1  0  0  0  0
 70 34  1  0  0  0  0
 72 36  1  0  0  0  0
 74 41  1  0  0  0  0
 75 41  1  0  0  0  0
 77 44  1  0  0  0  0
M  END
