79
-1 1
O        -0.074105    3.728838    4.491179
C        -0.559310    2.922563    3.718374
N         0.045589    2.611087    2.537149
C        -0.437714    1.938896    1.355572
H         0.299405    2.210173    0.583798
C        -0.550920    0.411830    1.335427
C        -1.233087    0.168966   -0.001863
N        -2.087329    1.350147   -0.169269
C        -1.810399    2.379212    0.818269
C        -2.816509    1.529868   -1.290053
N        -2.670463    0.590843   -2.234105
C        -3.276710    0.702583   -3.388839
O        -2.981352   -0.267045   -4.312204
C        -1.874749   -1.057440   -4.057510
C        -2.050604   -2.415377   -3.833034
C        -0.944075   -3.212337   -3.533491
C         0.319171   -2.635736   -3.448142
O         1.401488   -3.406686   -3.119696
C         1.920952   -3.285095   -1.853942
C         1.157000   -2.873314   -0.759272
C         1.740608   -2.827842    0.507107
C         3.080776   -3.177065    0.679486
C         3.839012   -3.572505   -0.423786
C         3.264187   -3.630239   -1.691436
C         0.494775   -1.274744   -3.710927
C        -0.602327   -0.486559   -4.025299
C        -4.166142    1.736917   -3.723165
C        -4.912899    1.934314   -5.005923
N        -4.725955    1.005624   -5.979259
O        -5.657302    2.889125   -5.161031
C        -4.346087    2.699763   -2.712224
C        -3.685280    2.631925   -1.503479
C        -1.843165    2.236241    4.094699
C        -1.939626    0.939956    4.395981
S         1.135754   -1.652610    3.900681
C         1.861936    0.017057    4.122494
C         3.172488    0.323908    3.372165
H         3.406400    1.390550    3.490148
N         3.072990    0.085979    1.941140
C         2.838229    1.041110    1.021364
C         2.726457    0.539424   -0.407904
O         2.692781    2.230537    1.285954
C         4.413376   -0.420474    3.893963
N         4.248096   -1.759527    4.033972
C         5.297187   -2.581629    4.574359
O         5.466792    0.155380    4.112803
H         1.000386    2.957499    2.448654
H        -1.182210    0.059073    2.159435
H         0.411071   -0.103626    1.444311
H        -1.834581   -0.751214   -0.029530
H        -0.516909    0.101749   -0.840074
H        -2.570976    2.396097    1.618020
H        -1.767433    3.377494    0.355521
H        -3.057256   -2.835148   -3.859151
H        -1.054839   -4.278300   -3.328861
H         0.109502   -2.595984   -0.890738
H         1.169766   -2.501331    1.386927
H         3.524196   -3.124103    1.677494
H         4.891365   -3.838683   -0.298721
H         3.836192   -3.940046   -2.567887
H         1.496121   -0.845097   -3.645216
H        -0.486588    0.582952   -4.207187
H        -4.098571    0.223811   -5.847815
H        -5.223548    1.140863   -6.847516
H        -5.032948    3.519304   -2.934224
H        -3.836644    3.388013   -0.733997
H        -2.682539    2.915196    4.282303
H        -1.103312    0.235823    4.292776
H        -2.873649    0.533331    4.794526
H         2.043547    0.216099    5.191850
H         1.139979    0.774230    3.784522
H         3.034952   -0.883266    1.647550
H         3.149209    1.299395   -1.077364
H         1.661532    0.417964   -0.659344
H         3.222860   -0.428024   -0.568121
H         3.265184   -2.098081    4.037482
H         5.355386   -2.523646    5.676142
H         6.267870   -2.253321    4.176302
H         5.126063   -3.631001    4.293331
