79
-1 1
O        -1.696719    2.626272    3.413489
C        -0.652190    1.958900    3.500999
N         0.469645    2.331459    2.614015
C         0.313097    1.945953    1.226763
H         1.152478    2.400154    0.669199
C         0.349917    0.433510    0.984566
C        -0.187795    0.273789   -0.431870
N        -1.116237    1.392589   -0.568238
C        -0.993332    2.364840    0.510627
C        -1.989300    1.484450   -1.583057
N        -1.929516    0.525712   -2.526630
C        -2.754602    0.556166   -3.542661
O        -2.628013   -0.456431   -4.462317
C        -1.803325   -1.525419   -4.206475
C        -2.046134   -2.389938   -3.138216
C        -1.232888   -3.502255   -2.958097
C        -0.188457   -3.749915   -3.849639
O         0.638358   -4.830612   -3.651584
C         0.285234   -6.048832   -4.142191
C         1.147475   -7.109414   -3.842128
C         0.863164   -8.386136   -4.312267
C        -0.277986   -8.621824   -5.082599
C        -1.130194   -7.560410   -5.375874
C        -0.859201   -6.272184   -4.912616
C         0.051094   -2.890435   -4.916495
C        -0.757854   -1.768481   -5.090756
C        -3.730007    1.541316   -3.764682
C        -4.701843    1.649837   -4.896672
N        -4.653478    0.689954   -5.858801
O        -5.505432    2.567464   -4.952211
C        -3.784429    2.539058   -2.770855
C        -2.943056    2.535660   -1.682993
C        -0.419953    0.861340    4.341313
C         0.859847    0.198476    4.528759
S         1.830335    0.701996    6.166356
C         1.680525    2.508350    6.089840
C         2.913354    3.257842    5.550603
H         2.623693    4.282254    5.282888
N         3.431089    2.645313    4.347517
C         3.352103    3.233659    3.119954
C         3.763476    2.319284    1.982369
O         3.010572    4.387731    2.945981
C         4.020681    3.415787    6.604637
N         4.561535    2.244025    7.041627
C         5.579123    2.193329    8.056818
O         4.380182    4.506848    7.007729
H         0.543405    3.347078    2.653467
H        -0.309538   -0.056442    1.718100
H         1.357586    0.010773    1.105835
H        -0.706544   -0.680508   -0.603971
H         0.609132    0.342254   -1.194730
H        -1.836937    2.326199    1.218529
H        -0.924025    3.390485    0.112768
H        -2.860415   -2.176609   -2.445271
H        -1.397157   -4.187431   -2.124627
H         2.032599   -6.905332   -3.237396
H         1.541274   -9.208355   -4.072069
H        -0.499637   -9.625938   -5.449100
H        -2.026956   -7.729132   -5.976738
H        -1.533369   -5.447794   -5.148042
H         0.877201   -3.102059   -5.597309
H        -0.583702   -1.068779   -5.909489
H        -3.990913   -0.070853   -5.809749
H        -5.316473    0.765877   -6.616481
H        -4.538538    3.318221   -2.899798
H        -3.012842    3.299708   -0.910678
H        -1.253904    0.580249    4.991306
H         1.564362    0.412184    3.717062
H         0.804380   -0.886444    4.704113
H         1.424798    2.887329    7.089688
H         0.809388    2.692901    5.436745
H         3.520827    1.634655    4.383024
H         3.783717    2.896321    1.050682
H         3.025751    1.508604    1.893460
H         4.754083    1.877166    2.167053
H         4.110326    1.380836    6.743616
H         5.209109    1.727768    8.985640
H         5.880591    3.225088    8.279291
H         6.462605    1.629733    7.714688
