-1 1
 OpenBabel05232414493D

 79 81  0  0  1  0  0  0  0  0999 V2000
    4.4766    2.9467   -9.2504 O   0  0  0  0  0  0  0  0  0  0  0  0
    5.5112    2.2796   -9.2465 C   0  0  0  0  0  0  0  0  0  0  0  0
    6.6001    2.6610  -10.1400 N   0  0  0  0  0  0  0  0  0  0  0  0
    6.4435    2.3116  -11.5353 C   0  0  1  0  0  0  0  0  0  0  0  0
    7.2965    2.7678  -12.0679 H   0  0  0  0  0  0  0  0  0  0  0  0
    6.4500    0.8078  -11.8272 C   0  0  0  0  0  0  0  0  0  0  0  0
    5.9263    0.7131  -13.2547 C   0  0  0  0  0  0  0  0  0  0  0  0
    5.0194    1.8534  -13.3572 N   0  0  0  0  0  0  0  0  0  0  0  0
    5.1529    2.7840  -12.2456 C   0  0  0  0  0  0  0  0  0  0  0  0
    4.1593    2.0010  -14.3788 C   0  0  0  0  0  0  0  0  0  0  0  0
    4.2089    1.0730  -15.3518 N   0  0  0  0  0  0  0  0  0  0  0  0
    3.3966    1.1550  -16.3758 C   0  0  0  0  0  0  0  0  0  0  0  0
    3.5112    0.1701  -17.3250 O   0  0  0  0  0  0  0  0  0  0  0  0
    4.3177   -0.9192  -17.0916 C   0  0  0  0  0  0  0  0  0  0  0  0
    4.0189   -1.8332  -16.0806 C   0  0  0  0  0  0  0  0  0  0  0  0
    4.8149   -2.9604  -15.9183 C   0  0  0  0  0  0  0  0  0  0  0  0
    5.8982   -3.1729  -16.7722 C   0  0  0  0  0  0  0  0  0  0  0  0
    6.7095   -4.2674  -16.5912 O   0  0  0  0  0  0  0  0  0  0  0  0
    6.3429   -5.4725  -17.1049 C   0  0  0  0  0  0  0  0  0  0  0  0
    7.1638   -6.5582  -16.7803 C   0  0  0  0  0  0  0  0  0  0  0  0
    6.8656   -7.8225  -17.2750 C   0  0  0  0  0  0  0  0  0  0  0  0
    5.7514   -8.0204  -18.0937 C   0  0  0  0  0  0  0  0  0  0  0  0
    4.9404   -6.9339  -18.4113 C   0  0  0  0  0  0  0  0  0  0  0  0
    5.2261   -5.6577  -17.9243 C   0  0  0  0  0  0  0  0  0  0  0  0
    6.1930   -2.2637  -17.7825 C   0  0  0  0  0  0  0  0  0  0  0  0
    5.4012   -1.1267  -17.9377 C   0  0  0  0  0  0  0  0  0  0  0  0
    2.4460    2.1690  -16.5747 C   0  0  0  0  0  0  0  0  0  0  0  0
    1.4892    2.3368  -17.7133 C   0  0  0  0  0  0  0  0  0  0  0  0
    1.5285    1.4091  -18.7064 N   0  0  0  0  0  0  0  0  0  0  0  0
    0.7066    3.2731  -17.7452 O   0  0  0  0  0  0  0  0  0  0  0  0
    2.4026    3.1343  -15.5499 C   0  0  0  0  0  0  0  0  0  0  0  0
    3.2318    3.0761  -14.4533 C   0  0  0  0  0  0  0  0  0  0  0  0
    5.7457    1.1289   -8.4358 C   0  0  0  0  0  3  0  0  0  0  0  0
    6.9684    0.4578   -8.3239 C   0  0  0  0  0  3  0  0  0  0  0  0
    8.2423    1.1887   -6.5631 S   0  0  0  0  0  1  0  0  0  0  0  0
    7.8335    2.9465   -6.7328 C   0  0  0  0  0  0  0  0  0  0  0  0
    8.9298    3.8229   -7.3777 C   0  0  2  0  0  0  0  0  0  0  0  0
    8.4918    4.7586   -7.7490 H   0  0  0  0  0  0  0  0  0  0  0  0
    9.5328    3.1542   -8.5103 N   0  0  0  0  0  0  0  0  0  0  0  0
    9.4269    3.5911   -9.7908 C   0  0  0  0  0  0  0  0  0  0  0  0
    9.9336    2.5931  -10.8166 C   0  0  0  0  0  0  0  0  0  0  0  0
    8.9729    4.6766  -10.1101 O   0  0  0  0  0  0  0  0  0  0  0  0
   10.0123    4.2555   -6.3748 C   0  0  0  0  0  0  0  0  0  0  0  0
   10.6487    3.2258   -5.7538 N   0  0  0  0  0  0  0  0  0  0  0  0
   11.6636    3.4335   -4.7577 C   0  0  0  0  0  0  0  0  0  0  0  0
   10.2764    5.4276   -6.1708 O   0  0  0  0  0  0  0  0  0  0  0  0
    6.7190    3.6707  -10.0714 H   0  0  0  0  0  0  0  0  0  0  0  0
    5.7718    0.2997  -11.1241 H   0  0  0  0  0  0  0  0  0  0  0  0
    7.4465    0.3599  -11.7082 H   0  0  0  0  0  0  0  0  0  0  0  0
    5.3931   -0.2241  -13.4702 H   0  0  0  0  0  0  0  0  0  0  0  0
    6.7343    0.7972  -14.0040 H   0  0  0  0  0  0  0  0  0  0  0  0
    4.2957    2.7379  -11.5544 H   0  0  0  0  0  0  0  0  0  0  0  0
    5.2483    3.8220  -12.6033 H   0  0  0  0  0  0  0  0  0  0  0  0
    3.1742   -1.6459  -15.4169 H   0  0  0  0  0  0  0  0  0  0  0  0
    4.6071   -3.6845  -15.1286 H   0  0  0  0  0  0  0  0  0  0  0  0
    8.0281   -6.3835  -16.1375 H   0  0  0  0  0  0  0  0  0  0  0  0
    7.5110   -8.6648  -17.0153 H   0  0  0  0  0  0  0  0  0  0  0  0
    5.5185   -9.0148  -18.4791 H   0  0  0  0  0  0  0  0  0  0  0  0
    4.0655   -7.0730  -19.0508 H   0  0  0  0  0  0  0  0  0  0  0  0
    4.5850   -4.8131  -18.1798 H   0  0  0  0  0  0  0  0  0  0  0  0
    7.0486   -2.4494  -18.4337 H   0  0  0  0  0  0  0  0  0  0  0  0
    5.6184   -0.3888  -18.7114 H   0  0  0  0  0  0  0  0  0  0  0  0
    2.1752    0.6337  -18.6773 H   0  0  0  0  0  0  0  0  0  0  0  0
    0.8777    1.5259  -19.4696 H   0  0  0  0  0  0  0  0  0  0  0  0
    1.6686    3.9350  -15.6613 H   0  0  0  0  0  0  0  0  0  0  0  0
    3.1717    3.8183  -13.6592 H   0  0  0  0  0  0  0  0  0  0  0  0
    4.9143    0.8492   -7.7832 H   0  0  0  0  0  0  0  0  0  0  0  0
    7.7204    0.6591   -9.0884 H   0  0  0  0  0  0  0  0  0  0  0  0
    6.9695   -0.5642   -7.9388 H   0  0  0  0  0  0  0  0  0  0  0  0
    7.5626    3.3685   -5.7535 H   0  0  0  0  0  0  0  0  0  0  0  0
    6.9219    2.9884   -7.3570 H   0  0  0  0  0  0  0  0  0  0  0  0
    9.6995    2.1614   -8.3520 H   0  0  0  0  0  0  0  0  0  0  0  0
   10.0363    3.0964  -11.7854 H   0  0  0  0  0  0  0  0  0  0  0  0
    9.1978    1.7800  -10.9064 H   0  0  0  0  0  0  0  0  0  0  0  0
   10.8982    2.1572  -10.5177 H   0  0  0  0  0  0  0  0  0  0  0  0
   10.2696    2.2887   -5.9011 H   0  0  0  0  0  0  0  0  0  0  0  0
   11.3319    3.1038   -3.7585 H   0  0  0  0  0  0  0  0  0  0  0  0
   11.8790    4.5093   -4.7171 H   0  0  0  0  0  0  0  0  0  0  0  0
   12.5917    2.8933   -5.0081 H   0  0  0  0  0  0  0  0  0  0  0  0
  1  2  2  0  0  0  0
  2 33  1  0  0  0  0
  3 47  1  0  0  0  0
  3  2  1  0  0  0  0
  4  5  1  6  0  0  0
  4  3  1  0  0  0  0
  6 49  1  0  0  0  0
  6  4  1  0  0  0  0
  6 48  1  0  0  0  0
  7  6  1  0  0  0  0
  8  7  1  0  0  0  0
  8  9  1  0  0  0  0
  9 52  1  0  0  0  0
  9  4  1  0  0  0  0
 10  8  1  0  0  0  0
 11 10  1  0  0  0  0
 12 11  2  0  0  0  0
 13 14  1  0  0  0  0
 13 12  1  0  0  0  0
 14 15  1  0  0  0  0
 15 16  2  0  0  0  0
 15 54  1  0  0  0  0
 16 55  1  0  0  0  0
 17 18  1  0  0  0  0
 17 16  1  0  0  0  0
 19 20  1  0  0  0  0
 19 18  1  0  0  0  0
 20 56  1  0  0  0  0
 21 57  1  0  0  0  0
 21 20  2  0  0  0  0
 22 21  1  0  0  0  0
 23 22  2  0  0  0  0
 23 24  1  0  0  0  0
 24 19  2  0  0  0  0
 25 17  2  0  0  0  0
 26 25  1  0  0  0  0
 26 14  2  0  0  0  0
 27 12  1  0  0  0  0
 27 31  2  0  0  0  0
 28 27  1  0  0  0  0
 29 63  1  0  0  0  0
 29 28  1  0  0  0  0
 30 28  2  0  0  0  0
 31 32  1  0  0  0  0
 32 10  2  0  0  0  0
 32 66  1  0  0  0  0
 33 34  1  0  0  0  0
 33 67  1  0  0  0  0
 34 69  1  0  0  0  0
 36 35  1  0  0  0  0
 36 70  1  0  0  0  0
 37 38  1  6  0  0  0
 37 36  1  0  0  0  0
 37 43  1  0  0  0  0
 39 72  1  0  0  0  0
 39 37  1  0  0  0  0
 40 39  1  0  0  0  0
 41 75  1  0  0  0  0
 41 40  1  0  0  0  0
 42 40  2  0  0  0  0
 43 46  2  0  0  0  0
 43 44  1  0  0  0  0
 44 45  1  0  0  0  0
 45 78  1  0  0  0  0
 45 77  1  0  0  0  0
 50  7  1  0  0  0  0
 51  7  1  0  0  0  0
 53  9  1  0  0  0  0
 58 22  1  0  0  0  0
 59 23  1  0  0  0  0
 60 24  1  0  0  0  0
 61 25  1  0  0  0  0
 62 26  1  0  0  0  0
 64 29  1  0  0  0  0
 65 31  1  0  0  0  0
 68 34  1  0  0  0  0
 71 36  1  0  0  0  0
 73 41  1  0  0  0  0
 74 41  1  0  0  0  0
 76 44  1  0  0  0  0
 79 45  1  0  0  0  0
M  END
