-1 1
 OpenBabel05192410563D

 79 82  0  0  1  0  0  0  0  0999 V2000
   -1.6967    2.6263    3.4135 O   0  0  0  0  0  0  0  0  0  0  0  0
   -0.6522    1.9589    3.5010 C   0  0  0  0  0  0  0  0  0  0  0  0
    0.4696    2.3315    2.6140 N   0  0  0  0  0  0  0  0  0  0  0  0
    0.3131    1.9460    1.2268 C   0  0  1  0  0  0  0  0  0  0  0  0
    1.1525    2.4002    0.6692 H   0  0  0  0  0  0  0  0  0  0  0  0
    0.3499    0.4335    0.9846 C   0  0  0  0  0  0  0  0  0  0  0  0
   -0.1878    0.2738   -0.4319 C   0  0  0  0  0  0  0  0  0  0  0  0
   -1.1162    1.3926   -0.5682 N   0  0  0  0  0  0  0  0  0  0  0  0
   -0.9933    2.3648    0.5106 C   0  0  0  0  0  0  0  0  0  0  0  0
   -1.9893    1.4845   -1.5831 C   0  0  0  0  0  0  0  0  0  0  0  0
   -1.9295    0.5257   -2.5266 N   0  0  0  0  0  0  0  0  0  0  0  0
   -2.7546    0.5562   -3.5427 C   0  0  0  0  0  0  0  0  0  0  0  0
   -2.6280   -0.4564   -4.4623 O   0  0  0  0  0  0  0  0  0  0  0  0
   -1.8033   -1.5254   -4.2065 C   0  0  0  0  0  0  0  0  0  0  0  0
   -2.0461   -2.3899   -3.1382 C   0  0  0  0  0  0  0  0  0  0  0  0
   -1.2329   -3.5023   -2.9581 C   0  0  0  0  0  0  0  0  0  0  0  0
   -0.1885   -3.7499   -3.8496 C   0  0  0  0  0  0  0  0  0  0  0  0
    0.6384   -4.8306   -3.6516 O   0  0  0  0  0  0  0  0  0  0  0  0
    0.2852   -6.0488   -4.1422 C   0  0  0  0  0  0  0  0  0  0  0  0
    1.1475   -7.1094   -3.8421 C   0  0  0  0  0  0  0  0  0  0  0  0
    0.8632   -8.3861   -4.3123 C   0  0  0  0  0  0  0  0  0  0  0  0
   -0.2780   -8.6218   -5.0826 C   0  0  0  0  0  0  0  0  0  0  0  0
   -1.1302   -7.5604   -5.3759 C   0  0  0  0  0  0  0  0  0  0  0  0
   -0.8592   -6.2722   -4.9126 C   0  0  0  0  0  0  0  0  0  0  0  0
    0.0511   -2.8904   -4.9165 C   0  0  0  0  0  0  0  0  0  0  0  0
   -0.7579   -1.7685   -5.0908 C   0  0  0  0  0  0  0  0  0  0  0  0
   -3.7300    1.5413   -3.7647 C   0  0  0  0  0  0  0  0  0  0  0  0
   -4.7018    1.6498   -4.8967 C   0  0  0  0  0  0  0  0  0  0  0  0
   -4.6535    0.6900   -5.8588 N   0  0  0  0  0  0  0  0  0  0  0  0
   -5.5054    2.5675   -4.9522 O   0  0  0  0  0  0  0  0  0  0  0  0
   -3.7844    2.5391   -2.7709 C   0  0  0  0  0  0  0  0  0  0  0  0
   -2.9431    2.5357   -1.6830 C   0  0  0  0  0  0  0  0  0  0  0  0
   -0.4200    0.8613    4.3413 C   0  0  0  0  0  3  0  0  0  0  0  0
    0.8598    0.1985    4.5288 C   0  0  0  0  0  0  0  0  0  0  0  0
    1.8303    0.7020    6.1664 S   0  0  0  0  0  0  0  0  0  0  0  0
    1.6805    2.5084    6.0898 C   0  0  0  0  0  0  0  0  0  0  0  0
    2.9134    3.2578    5.5506 C   0  0  2  0  0  0  0  0  0  0  0  0
    2.6237    4.2823    5.2829 H   0  0  0  0  0  0  0  0  0  0  0  0
    3.4311    2.6453    4.3475 N   0  0  0  0  0  0  0  0  0  0  0  0
    3.3521    3.2337    3.1200 C   0  0  0  0  0  0  0  0  0  0  0  0
    3.7635    2.3193    1.9824 C   0  0  0  0  0  0  0  0  0  0  0  0
    3.0106    4.3877    2.9460 O   0  0  0  0  0  0  0  0  0  0  0  0
    4.0207    3.4158    6.6046 C   0  0  0  0  0  0  0  0  0  0  0  0
    4.5615    2.2440    7.0416 N   0  0  0  0  0  0  0  0  0  0  0  0
    5.5791    2.1933    8.0568 C   0  0  0  0  0  0  0  0  0  0  0  0
    4.3802    4.5068    7.0077 O   0  0  0  0  0  0  0  0  0  0  0  0
    0.5434    3.3471    2.6535 H   0  0  0  0  0  0  0  0  0  0  0  0
   -0.3095   -0.0564    1.7181 H   0  0  0  0  0  0  0  0  0  0  0  0
    1.3576    0.0108    1.1058 H   0  0  0  0  0  0  0  0  0  0  0  0
   -0.7065   -0.6805   -0.6040 H   0  0  0  0  0  0  0  0  0  0  0  0
    0.6091    0.3423   -1.1947 H   0  0  0  0  0  0  0  0  0  0  0  0
   -1.8369    2.3262    1.2185 H   0  0  0  0  0  0  0  0  0  0  0  0
   -0.9240    3.3905    0.1128 H   0  0  0  0  0  0  0  0  0  0  0  0
   -2.8604   -2.1766   -2.4453 H   0  0  0  0  0  0  0  0  0  0  0  0
   -1.3972   -4.1874   -2.1246 H   0  0  0  0  0  0  0  0  0  0  0  0
    2.0326   -6.9053   -3.2374 H   0  0  0  0  0  0  0  0  0  0  0  0
    1.5413   -9.2084   -4.0721 H   0  0  0  0  0  0  0  0  0  0  0  0
   -0.4996   -9.6259   -5.4491 H   0  0  0  0  0  0  0  0  0  0  0  0
   -2.0270   -7.7291   -5.9767 H   0  0  0  0  0  0  0  0  0  0  0  0
   -1.5334   -5.4478   -5.1480 H   0  0  0  0  0  0  0  0  0  0  0  0
    0.8772   -3.1021   -5.5973 H   0  0  0  0  0  0  0  0  0  0  0  0
   -0.5837   -1.0688   -5.9095 H   0  0  0  0  0  0  0  0  0  0  0  0
   -3.9909   -0.0709   -5.8097 H   0  0  0  0  0  0  0  0  0  0  0  0
   -5.3165    0.7659   -6.6165 H   0  0  0  0  0  0  0  0  0  0  0  0
   -4.5385    3.3182   -2.8998 H   0  0  0  0  0  0  0  0  0  0  0  0
   -3.0128    3.2997   -0.9107 H   0  0  0  0  0  0  0  0  0  0  0  0
   -1.2539    0.5802    4.9913 H   0  0  0  0  0  0  0  0  0  0  0  0
    1.5644    0.4122    3.7171 H   0  0  0  0  0  0  0  0  0  0  0  0
    0.8044   -0.8864    4.7041 H   0  0  0  0  0  0  0  0  0  0  0  0
    1.4248    2.8873    7.0897 H   0  0  0  0  0  0  0  0  0  0  0  0
    0.8094    2.6929    5.4367 H   0  0  0  0  0  0  0  0  0  0  0  0
    3.5208    1.6347    4.3830 H   0  0  0  0  0  0  0  0  0  0  0  0
    3.7837    2.8963    1.0507 H   0  0  0  0  0  0  0  0  0  0  0  0
    3.0258    1.5086    1.8935 H   0  0  0  0  0  0  0  0  0  0  0  0
    4.7541    1.8772    2.1671 H   0  0  0  0  0  0  0  0  0  0  0  0
    4.1103    1.3808    6.7436 H   0  0  0  0  0  0  0  0  0  0  0  0
    5.2091    1.7278    8.9856 H   0  0  0  0  0  0  0  0  0  0  0  0
    5.8806    3.2251    8.2793 H   0  0  0  0  0  0  0  0  0  0  0  0
    6.4626    1.6297    7.7147 H   0  0  0  0  0  0  0  0  0  0  0  0
  1  2  2  0  0  0  0
  2 33  1  0  0  0  0
  3 47  1  0  0  0  0
  3  2  1  0  0  0  0
  4  5  1  6  0  0  0
  4  3  1  0  0  0  0
  6 49  1  0  0  0  0
  6  4  1  0  0  0  0
  6 48  1  0  0  0  0
  7  6  1  0  0  0  0
  8  7  1  0  0  0  0
  8  9  1  0  0  0  0
  9 52  1  0  0  0  0
  9  4  1  0  0  0  0
 10  8  1  0  0  0  0
 11 10  1  0  0  0  0
 12 11  2  0  0  0  0
 13 14  1  0  0  0  0
 13 12  1  0  0  0  0
 14 15  1  0  0  0  0
 15 16  2  0  0  0  0
 15 54  1  0  0  0  0
 16 55  1  0  0  0  0
 17 18  1  0  0  0  0
 17 16  1  0  0  0  0
 19 20  1  0  0  0  0
 19 18  1  0  0  0  0
 20 56  1  0  0  0  0
 21 57  1  0  0  0  0
 21 20  2  0  0  0  0
 22 21  1  0  0  0  0
 23 22  2  0  0  0  0
 23 24  1  0  0  0  0
 24 19  2  0  0  0  0
 25 17  2  0  0  0  0
 26 25  1  0  0  0  0
 26 14  2  0  0  0  0
 27 12  1  0  0  0  0
 27 31  2  0  0  0  0
 28 27  1  0  0  0  0
 29 63  1  0  0  0  0
 29 28  1  0  0  0  0
 30 28  2  0  0  0  0
 31 32  1  0  0  0  0
 32 10  2  0  0  0  0
 32 66  1  0  0  0  0
 33 34  1  0  0  0  0
 33 67  1  0  0  0  0
 34 69  1  0  0  0  0
 34 35  1  0  0  0  0
 36 35  1  0  0  0  0
 36 70  1  0  0  0  0
 37 38  1  6  0  0  0
 37 36  1  0  0  0  0
 37 43  1  0  0  0  0
 39 72  1  0  0  0  0
 39 37  1  0  0  0  0
 40 39  1  0  0  0  0
 41 75  1  0  0  0  0
 41 40  1  0  0  0  0
 42 40  2  0  0  0  0
 43 46  2  0  0  0  0
 43 44  1  0  0  0  0
 44 45  1  0  0  0  0
 45 78  1  0  0  0  0
 45 77  1  0  0  0  0
 50  7  1  0  0  0  0
 51  7  1  0  0  0  0
 53  9  1  0  0  0  0
 58 22  1  0  0  0  0
 59 23  1  0  0  0  0
 60 24  1  0  0  0  0
 61 25  1  0  0  0  0
 62 26  1  0  0  0  0
 64 29  1  0  0  0  0
 65 31  1  0  0  0  0
 68 34  1  0  0  0  0
 71 36  1  0  0  0  0
 73 41  1  0  0  0  0
 74 41  1  0  0  0  0
 76 44  1  0  0  0  0
 79 45  1  0  0  0  0
M  END
