79
-1 1
O         4.476584    2.946691   -9.250389
C         5.511196    2.279557   -9.246543
N         6.600122    2.660976  -10.140020
C         6.443508    2.311572  -11.535312
H         7.296460    2.767793  -12.067939
C         6.449978    0.807822  -11.827165
C         5.926291    0.713105  -13.254741
N         5.019426    1.853369  -13.357199
C         5.152906    2.783962  -12.245570
C         4.159347    2.000960  -14.378850
N         4.208877    1.073009  -15.351799
C         3.396646    1.154957  -16.375811
O         3.511234    0.170113  -17.324985
C         4.317738   -0.919157  -17.091563
C         4.018876   -1.833199  -16.080642
C         4.814884   -2.960431  -15.918305
C         5.898237   -3.172910  -16.772158
O         6.709542   -4.267411  -16.591162
C         6.342922   -5.472523  -17.104898
C         7.163768   -6.558203  -16.780314
C         6.865593   -7.822486  -17.274974
C         5.751355   -8.020362  -18.093742
C         4.940406   -6.933884  -18.411312
C         5.226150   -5.657662  -17.924320
C         6.192996   -2.263722  -17.782507
C         5.401167   -1.126688  -17.937680
C         2.445968    2.168960  -16.574689
C         1.489226    2.336772  -17.713347
N         1.528460    1.409132  -18.706429
O         0.706595    3.273109  -17.745198
C         2.402650    3.134310  -15.549933
C         3.231792    3.076071  -14.453335
C         5.745732    1.128941   -8.435821
C         6.968393    0.457814   -8.323934
S         8.242297    1.188742   -6.563118
C         7.833470    2.946465   -6.732755
C         8.929832    3.822943   -7.377663
H         8.491751    4.758587   -7.748975
N         9.532769    3.154165   -8.510345
C         9.426919    3.591050   -9.790849
C         9.933613    2.593122  -10.816629
O         8.972918    4.676583  -10.110053
C        10.012259    4.255524   -6.374816
N        10.648700    3.225842   -5.753831
C        11.663618    3.433452   -4.757725
O        10.276383    5.427561   -6.170836
H         6.718958    3.670737  -10.071439
H         5.771841    0.299693  -11.124142
H         7.446488    0.359866  -11.708232
H         5.393076   -0.224072  -13.470151
H         6.734267    0.797181  -14.003960
H         4.295728    2.737894  -11.554391
H         5.248274    3.821977  -12.603286
H         3.174209   -1.645895  -15.416894
H         4.607052   -3.684545  -15.128570
H         8.028076   -6.383526  -16.137491
H         7.511047   -8.664796  -17.015349
H         5.518477   -9.014829  -18.479068
H         4.065546   -7.072971  -19.050787
H         4.585048   -4.813067  -18.179778
H         7.048616   -2.449371  -18.433693
H         5.618370   -0.388837  -18.711355
H         2.175152    0.633734  -18.677250
H         0.877718    1.525867  -19.469609
H         1.668589    3.935004  -15.661283
H         3.171747    3.818334  -13.659215
H         4.914295    0.849193   -7.783199
H         7.720406    0.659095   -9.088371
H         6.969478   -0.564222   -7.938780
H         7.562610    3.368507   -5.753483
H         6.921866    2.988398   -7.356969
H         9.699541    2.161446   -8.352001
H        10.036327    3.096356  -11.785388
H         9.197782    1.780011  -10.906447
H        10.898186    2.157155  -10.517711
H        10.269634    2.288651   -5.901063
H        11.331874    3.103822   -3.758509
H        11.878951    4.509274   -4.717059
H        12.591728    2.893303   -5.008127
