79
-1 1
O        -0.151514   -0.091254    0.883063
C         1.082018    0.164716    0.950857
N         1.526520    0.943719    2.074606
C         2.331220    2.141609    1.883475
C         1.695919    3.211136    2.806061
C         0.284829    2.679378    3.062197
H        -0.147771    3.083808    3.992675
C         0.576776    1.172369    3.145076
N        -0.556473    3.034017    1.926697
C        -1.742211    2.409753    1.660538
N        -2.080732    2.350925    0.370815
C        -3.127421    1.655391    0.000061
O        -3.352132    1.506024   -1.324851
C        -2.307121    1.559910   -2.214941
C        -2.567971    2.164003   -3.442003
C        -1.581130    2.188983   -4.426666
C        -0.339127    1.621967   -4.162975
O         0.650516    1.688143   -5.125314
C         0.837580    0.639009   -5.963043
C         1.881382    0.761050   -6.888878
C         2.134750   -0.266855   -7.789727
C         1.356311   -1.426478   -7.781746
C         0.320755   -1.540642   -6.857057
C         0.052250   -0.518325   -5.946934
C        -0.078002    1.021443   -2.931783
C        -1.063373    0.975796   -1.950653
C        -4.005817    1.020627    0.897121
C        -5.179255    0.210395    0.447099
N        -5.305449   -0.984376    1.117744
O        -5.982229    0.563556   -0.390318
C        -3.689826    1.164071    2.253516
C        -2.569009    1.864326    2.662753
C         2.040491   -0.331068    0.063701
C         3.516170   -0.299875    0.196425
S         4.365060   -1.741861    1.077892
C         3.726156   -1.543092    2.770871
C         2.644441   -2.540901    3.184488
H         3.061610   -3.563024    3.236498
N         1.564595   -2.541815    2.219575
C         0.684846   -3.545177    2.050552
C        -0.210155   -3.386467    0.843752
O         0.611387   -4.514926    2.810049
C         2.130339   -2.182202    4.599970
N         1.296066   -3.112434    5.121017
C         0.610716   -2.913812    6.369128
O         2.464483   -1.162636    5.183100
H         2.316173    2.441051    0.820278
H         3.393689    1.997389    2.154819
H         1.697572    4.220119    2.365932
H         2.237081    3.262398    3.761991
H        -0.302455    0.539787    2.979561
H         1.020254    0.927569    4.127914
H        -0.055931    3.205868    1.060692
H        -3.550585    2.606882   -3.611837
H        -1.763843    2.652702   -5.397847
H         2.480902    1.672935   -6.877030
H         2.953656   -0.161779   -8.505711
H         1.559302   -2.234263   -8.487728
H        -0.294970   -2.443036   -6.834582
H        -0.757631   -0.618983   -5.223528
H         0.904172    0.589500   -2.728661
H        -0.844859    0.507003   -0.981648
H        -4.484915   -1.403826    1.535301
H        -6.022684   -1.610140    0.772735
H        -4.342015    0.701702    2.999049
H        -2.310653    1.953291    3.717219
H         1.631523   -0.901250   -0.776063
H         3.910098    0.588103    0.706318
H         4.009585   -0.342581   -0.786750
H         3.313605   -0.528979    2.865684
H         4.566672   -1.621432    3.472548
H         1.602835   -1.812599    1.494587
H        -0.445934   -2.321419    0.677868
H        -1.120318   -3.980875    0.992679
H         0.316062   -3.766735   -0.045495
H         1.005711   -3.864553    4.485223
H        -0.464542   -2.714731    6.220145
H         0.709232   -3.796692    7.020981
H         1.056897   -2.047037    6.873665
