79
-1 1
O         5.028836   -3.724168   10.794124
C         6.208655   -3.331614   10.896716
N         6.573409   -2.629700   12.046236
C         7.558168   -1.557694   12.099841
C         7.037962   -0.618207   13.208183
C         5.551451   -0.957583   13.313054
H         5.127513   -0.668373   14.288272
C         5.601423   -2.475782   13.109618
N         4.827428   -0.293255   12.232330
C         3.588075   -0.721767   11.837201
N         3.343060   -0.659635   10.526614
C         2.224855   -1.146580   10.042217
O         2.071757   -1.176381    8.702148
C         3.174171   -1.116590    7.881183
C         3.095076   -0.265465    6.783532
C         4.152350   -0.206298    5.876582
C         5.281763   -0.988290    6.092577
O         6.348674   -0.881807    5.224233
C         6.496415   -1.787325    4.225133
C         7.644726   -1.655506    3.434811
C         7.867333   -2.534913    2.381805
C         6.953966   -3.554004    2.102429
C         5.814901   -3.678952    2.894193
C         5.575495   -2.804055    3.954163
C         5.359407   -1.840606    7.193930
C         4.299196   -1.919816    8.090621
C         1.195226   -1.683416   10.837417
C        -0.071500   -2.231771   10.259504
N        -0.455122   -3.428192   10.818134
O        -0.738835   -1.672777    9.415861
C         1.439417   -1.694525   12.214963
C         2.626085   -1.213144   12.741141
C         7.183129   -3.621563    9.877086
C         8.576298   -3.563551    9.934262
S         9.728245   -5.366831   10.918855
C         9.707573   -4.749351   12.626775
C         8.553986   -5.245059   13.524149
H         8.853374   -6.174385   14.041550
N         7.372418   -5.544244   12.737283
C         6.386377   -6.379710   13.113845
C         5.427466   -6.763297   12.011233
O         6.265372   -6.802102   14.266905
C         8.254345   -4.204306   14.633316
N         7.381832   -4.636818   15.570216
C         6.951185   -3.778098   16.640137
O         8.776583   -3.099260   14.680291
H         7.630155   -1.062116   11.115610
H         8.562981   -1.914919   12.371826
H         7.220941    0.446229   12.997940
H         7.530211   -0.880380   14.155124
H         4.651504   -2.920423   12.794136
H         5.935487   -2.975695   14.035615
H         5.396662   -0.086296   11.417313
H         2.199484    0.343808    6.653108
H         4.114922    0.452004    5.006783
H         8.348919   -0.856364    3.672345
H         8.768803   -2.425467    1.773994
H         7.132898   -4.246657    1.277655
H         5.092798   -4.473584    2.691640
H         4.682748   -2.913162    4.570984
H         6.258109   -2.436479    7.364225
H         4.366862   -2.589294    8.955157
H         0.243344   -4.021846   11.245701
H        -1.251824   -3.881651   10.388373
H         0.673685   -2.096050   12.883698
H         2.822077   -1.237253   13.812389
H         6.734680   -4.157618    9.035655
H         9.092527   -2.891204   10.619789
H         9.115690   -3.715819    8.997580
H         9.672156   -3.650650   12.610828
H        10.654404   -5.004500   13.124093
H         7.494827   -5.370140   11.737073
H         5.081526   -5.865828   11.472514
H         4.580416   -7.303849   12.449794
H         5.941436   -7.415668   11.288435
H         6.906271   -5.527732   15.377349
H         6.224427   -3.015511   16.304187
H         6.478952   -4.381907   17.427004
H         7.812126   -3.241779   17.065101
