-1 1
 OpenBabel05192410563D

 79 82  0  0  1  0  0  0  0  0999 V2000
   -0.1515   -0.0913    0.8831 O   0  0  0  0  0  0  0  0  0  0  0  0
    1.0820    0.1647    0.9509 C   0  0  0  0  0  0  0  0  0  0  0  0
    1.5265    0.9437    2.0746 N   0  0  0  0  0  0  0  0  0  0  0  0
    2.3312    2.1416    1.8835 C   0  0  0  0  0  0  0  0  0  0  0  0
    1.6959    3.2111    2.8061 C   0  0  0  0  0  0  0  0  0  0  0  0
    0.2848    2.6794    3.0622 C   0  0  2  0  0  0  0  0  0  0  0  0
   -0.1478    3.0838    3.9927 H   0  0  0  0  0  0  0  0  0  0  0  0
    0.5768    1.1724    3.1451 C   0  0  0  0  0  0  0  0  0  0  0  0
   -0.5565    3.0340    1.9267 N   0  0  0  0  0  0  0  0  0  0  0  0
   -1.7422    2.4098    1.6605 C   0  0  0  0  0  0  0  0  0  0  0  0
   -2.0807    2.3509    0.3708 N   0  0  0  0  0  0  0  0  0  0  0  0
   -3.1274    1.6554    0.0001 C   0  0  0  0  0  0  0  0  0  0  0  0
   -3.3521    1.5060   -1.3249 O   0  0  0  0  0  0  0  0  0  0  0  0
   -2.3071    1.5599   -2.2149 C   0  0  0  0  0  0  0  0  0  0  0  0
   -2.5680    2.1640   -3.4420 C   0  0  0  0  0  0  0  0  0  0  0  0
   -1.5811    2.1890   -4.4267 C   0  0  0  0  0  0  0  0  0  0  0  0
   -0.3391    1.6220   -4.1630 C   0  0  0  0  0  0  0  0  0  0  0  0
    0.6505    1.6881   -5.1253 O   0  0  0  0  0  0  0  0  0  0  0  0
    0.8376    0.6390   -5.9630 C   0  0  0  0  0  0  0  0  0  0  0  0
    1.8814    0.7611   -6.8889 C   0  0  0  0  0  0  0  0  0  0  0  0
    2.1347   -0.2669   -7.7897 C   0  0  0  0  0  0  0  0  0  0  0  0
    1.3563   -1.4265   -7.7817 C   0  0  0  0  0  0  0  0  0  0  0  0
    0.3208   -1.5406   -6.8571 C   0  0  0  0  0  0  0  0  0  0  0  0
    0.0522   -0.5183   -5.9469 C   0  0  0  0  0  0  0  0  0  0  0  0
   -0.0780    1.0214   -2.9318 C   0  0  0  0  0  0  0  0  0  0  0  0
   -1.0634    0.9758   -1.9507 C   0  0  0  0  0  0  0  0  0  0  0  0
   -4.0058    1.0206    0.8971 C   0  0  0  0  0  0  0  0  0  0  0  0
   -5.1793    0.2104    0.4471 C   0  0  0  0  0  0  0  0  0  0  0  0
   -5.3054   -0.9844    1.1177 N   0  0  0  0  0  0  0  0  0  0  0  0
   -5.9822    0.5636   -0.3903 O   0  0  0  0  0  0  0  0  0  0  0  0
   -3.6898    1.1641    2.2535 C   0  0  0  0  0  0  0  0  0  0  0  0
   -2.5690    1.8643    2.6628 C   0  0  0  0  0  0  0  0  0  0  0  0
    2.0405   -0.3311    0.0637 C   0  0  0  0  0  3  0  0  0  0  0  0
    3.5162   -0.2999    0.1964 C   0  0  0  0  0  0  0  0  0  0  0  0
    4.3651   -1.7419    1.0779 S   0  0  0  0  0  0  0  0  0  0  0  0
    3.7262   -1.5431    2.7709 C   0  0  0  0  0  0  0  0  0  0  0  0
    2.6444   -2.5409    3.1845 C   0  0  2  0  0  0  0  0  0  0  0  0
    3.0616   -3.5630    3.2365 H   0  0  0  0  0  0  0  0  0  0  0  0
    1.5646   -2.5418    2.2196 N   0  0  0  0  0  0  0  0  0  0  0  0
    0.6848   -3.5452    2.0506 C   0  0  0  0  0  0  0  0  0  0  0  0
   -0.2102   -3.3865    0.8438 C   0  0  0  0  0  0  0  0  0  0  0  0
    0.6114   -4.5149    2.8100 O   0  0  0  0  0  0  0  0  0  0  0  0
    2.1303   -2.1822    4.6000 C   0  0  0  0  0  0  0  0  0  0  0  0
    1.2961   -3.1124    5.1210 N   0  0  0  0  0  0  0  0  0  0  0  0
    0.6107   -2.9138    6.3691 C   0  0  0  0  0  0  0  0  0  0  0  0
    2.4645   -1.1626    5.1831 O   0  0  0  0  0  0  0  0  0  0  0  0
    2.3162    2.4411    0.8203 H   0  0  0  0  0  0  0  0  0  0  0  0
    3.3937    1.9974    2.1548 H   0  0  0  0  0  0  0  0  0  0  0  0
    1.6976    4.2201    2.3659 H   0  0  0  0  0  0  0  0  0  0  0  0
    2.2371    3.2624    3.7620 H   0  0  0  0  0  0  0  0  0  0  0  0
   -0.3025    0.5398    2.9796 H   0  0  0  0  0  0  0  0  0  0  0  0
    1.0203    0.9276    4.1279 H   0  0  0  0  0  0  0  0  0  0  0  0
   -0.0559    3.2059    1.0607 H   0  0  0  0  0  0  0  0  0  0  0  0
   -3.5506    2.6069   -3.6118 H   0  0  0  0  0  0  0  0  0  0  0  0
   -1.7638    2.6527   -5.3978 H   0  0  0  0  0  0  0  0  0  0  0  0
    2.4809    1.6729   -6.8770 H   0  0  0  0  0  0  0  0  0  0  0  0
    2.9537   -0.1618   -8.5057 H   0  0  0  0  0  0  0  0  0  0  0  0
    1.5593   -2.2343   -8.4877 H   0  0  0  0  0  0  0  0  0  0  0  0
   -0.2950   -2.4430   -6.8346 H   0  0  0  0  0  0  0  0  0  0  0  0
   -0.7576   -0.6190   -5.2235 H   0  0  0  0  0  0  0  0  0  0  0  0
    0.9042    0.5895   -2.7287 H   0  0  0  0  0  0  0  0  0  0  0  0
   -0.8449    0.5070   -0.9816 H   0  0  0  0  0  0  0  0  0  0  0  0
   -4.4849   -1.4038    1.5353 H   0  0  0  0  0  0  0  0  0  0  0  0
   -6.0227   -1.6101    0.7727 H   0  0  0  0  0  0  0  0  0  0  0  0
   -4.3420    0.7017    2.9990 H   0  0  0  0  0  0  0  0  0  0  0  0
   -2.3107    1.9533    3.7172 H   0  0  0  0  0  0  0  0  0  0  0  0
    1.6315   -0.9012   -0.7761 H   0  0  0  0  0  0  0  0  0  0  0  0
    3.9101    0.5881    0.7063 H   0  0  0  0  0  0  0  0  0  0  0  0
    4.0096   -0.3426   -0.7867 H   0  0  0  0  0  0  0  0  0  0  0  0
    3.3136   -0.5290    2.8657 H   0  0  0  0  0  0  0  0  0  0  0  0
    4.5667   -1.6214    3.4725 H   0  0  0  0  0  0  0  0  0  0  0  0
    1.6028   -1.8126    1.4946 H   0  0  0  0  0  0  0  0  0  0  0  0
   -0.4459   -2.3214    0.6779 H   0  0  0  0  0  0  0  0  0  0  0  0
   -1.1203   -3.9809    0.9927 H   0  0  0  0  0  0  0  0  0  0  0  0
    0.3161   -3.7667   -0.0455 H   0  0  0  0  0  0  0  0  0  0  0  0
    1.0057   -3.8646    4.4852 H   0  0  0  0  0  0  0  0  0  0  0  0
   -0.4645   -2.7147    6.2201 H   0  0  0  0  0  0  0  0  0  0  0  0
    0.7092   -3.7967    7.0210 H   0  0  0  0  0  0  0  0  0  0  0  0
    1.0569   -2.0470    6.8737 H   0  0  0  0  0  0  0  0  0  0  0  0
  1  2  2  0  0  0  0
  2  3  1  0  0  0  0
  3  8  1  0  0  0  0
  4  3  1  0  0  0  0
  4 48  1  0  0  0  0
  4  5  1  0  0  0  0
  5  6  1  0  0  0  0
  5 50  1  0  0  0  0
  6  8  1  0  0  0  0
  6  7  1  1  0  0  0
  8 52  1  0  0  0  0
  9  6  1  0  0  0  0
 10  9  1  0  0  0  0
 10 32  2  0  0  0  0
 11 10  1  0  0  0  0
 12 11  2  0  0  0  0
 12 27  1  0  0  0  0
 13 12  1  0  0  0  0
 14 26  1  0  0  0  0
 14 13  1  0  0  0  0
 15 14  2  0  0  0  0
 16 17  2  0  0  0  0
 16 15  1  0  0  0  0
 17 25  1  0  0  0  0
 18 17  1  0  0  0  0
 19 24  1  0  0  0  0
 19 18  1  0  0  0  0
 20 56  1  0  0  0  0
 20 19  2  0  0  0  0
 21 22  2  0  0  0  0
 21 20  1  0  0  0  0
 22 23  1  0  0  0  0
 23 59  1  0  0  0  0
 23 24  2  0  0  0  0
 24 60  1  0  0  0  0
 25 61  1  0  0  0  0
 25 26  2  0  0  0  0
 26 62  1  0  0  0  0
 27 31  2  0  0  0  0
 28 27  1  0  0  0  0
 28 29  1  0  0  0  0
 29 63  1  0  0  0  0
 30 28  2  0  0  0  0
 31 32  1  0  0  0  0
 31 65  1  0  0  0  0
 32 66  1  0  0  0  0
 33 34  1  0  0  0  0
 33  2  1  0  0  0  0
 34 68  1  0  0  0  0
 34 35  1  0  0  0  0
 35 36  1  0  0  0  0
 36 70  1  0  0  0  0
 36 37  1  0  0  0  0
 36 71  1  0  0  0  0
 37 38  1  1  0  0  0
 37 43  1  0  0  0  0
 39 37  1  0  0  0  0
 40 39  1  0  0  0  0
 40 42  2  0  0  0  0
 41 74  1  0  0  0  0
 41 40  1  0  0  0  0
 43 44  1  0  0  0  0
 43 46  2  0  0  0  0
 44 45  1  0  0  0  0
 45 79  1  0  0  0  0
 45 78  1  0  0  0  0
 47  4  1  0  0  0  0
 49  5  1  0  0  0  0
 51  8  1  0  0  0  0
 53  9  1  0  0  0  0
 54 15  1  0  0  0  0
 55 16  1  0  0  0  0
 57 21  1  0  0  0  0
 58 22  1  0  0  0  0
 64 29  1  0  0  0  0
 67 33  1  0  0  0  0
 69 34  1  0  0  0  0
 72 39  1  0  0  0  0
 73 41  1  0  0  0  0
 75 41  1  0  0  0  0
 76 44  1  0  0  0  0
 77 45  1  0  0  0  0
M  END
