85
-1 1
O         2.969821   -2.442746   -0.141585
C         2.164500   -1.487980   -0.097934
N         0.866832   -1.871670    0.410497
C        -0.378803   -1.265593   -0.013539
C        -1.577069   -2.204621    0.175004
C        -1.692546   -2.797731    1.589908
C        -2.088341   -1.746133    2.626120
C        -3.327325   -0.974843    2.173476
N        -3.163991   -0.431434    0.834024
C        -2.885691   -1.464454   -0.157480
C        -2.670549    0.836487    0.624555
N        -2.425857    1.170173   -0.647068
C        -1.878455    2.322616   -0.955384
O        -1.583121    2.550413   -2.263688
C        -1.230262    1.460590   -3.028892
C        -2.166374    0.520229   -3.453778
C        -1.737575   -0.609081   -4.145274
C        -0.383296   -0.784197   -4.431218
O        -0.020774   -1.908036   -5.122233
C         0.961521   -2.741159   -4.658277
C         1.408334   -3.710332   -5.561629
C         2.383952   -4.621742   -5.168188
C         2.924123   -4.568789   -3.881835
C         2.476815   -3.598836   -2.985550
C         1.490212   -2.687052   -3.366526
C         0.542497    0.193643   -4.067332
C         0.113337    1.311875   -3.360621
C        -1.527600    3.293706   -0.007634
C        -0.830630    4.572495   -0.365866
N         0.264886    4.822893    0.412094
O        -1.216963    5.333903   -1.229777
C        -1.800611    2.951854    1.321635
C        -2.385827    1.744745    1.666058
C         2.452967   -0.172064   -0.504847
C         1.726313    1.079098   -0.322067
S         2.310968    2.197515    1.177032
C         2.450118    0.926289    2.443304
C         1.155113    0.566408    3.176694
H         0.372353    0.345402    2.433718
N         0.716712    1.665215    3.999554
C        -0.468942    1.667907    4.646416
C        -0.726760    2.863531    5.542811
O        -1.313375    0.798385    4.496122
C         1.417274   -0.691757    4.029424
N         1.367473   -1.832157    3.312493
C         1.751992   -3.109519    3.850872
O         1.704847   -0.615302    5.211999
H         0.857617   -2.885120    0.312007
H        -0.346049   -0.940836   -1.071717
H        -0.549849   -0.352721    0.575340
H        -1.467669   -3.034402   -0.546846
H        -0.754489   -3.288773    1.889347
H        -2.463047   -3.590047    1.564694
H        -1.272844   -1.032878    2.804782
H        -2.281846   -2.216446    3.602587
H        -3.571195   -0.177023    2.884471
H        -4.199809   -1.653163    2.144746
H        -2.836176   -1.004610   -1.149810
H        -3.724779   -2.181132   -0.149670
H        -3.216876    0.658077   -3.201155
H        -2.443613   -1.379260   -4.460296
H         0.975471   -3.730033   -6.563625
H         2.728517   -5.377326   -5.879321
H         3.697158   -5.278749   -3.579361
H         2.879028   -3.504601   -1.969751
H         1.172665   -1.926272   -2.650994
H         1.600182    0.060023   -4.298207
H         0.821806    2.073846   -3.036067
H         0.740074    4.058449    0.896001
H         0.817863    5.631103    0.154985
H        -1.513171    3.649225    2.112441
H        -2.515403    1.482722    2.713276
H         3.476654   -0.080605   -0.879373
H         0.643760    1.000853   -0.179186
H         1.909605    1.803845   -1.127135
H         3.217491    1.228894    3.173374
H         2.832268    0.033509    1.918160
H         1.408891    2.356853    4.251170
H        -1.518740    3.476353    5.087418
H         0.158244    3.493083    5.707957
H        -1.101540    2.498857    6.508192
H         1.153995   -1.786849    2.302855
H         0.879142   -3.764734    4.017673
H         2.250823   -2.952672    4.816678
H         2.440954   -3.614454    3.156764
