80
-1 1
O         1.888102    3.679987   -1.100166
C         1.257727    2.907020   -0.388194
N         0.262390    2.117985   -0.873799
C        -0.705403    1.322432   -0.102975
C        -1.821558    1.152385   -1.149057
H        -2.772144    0.802802   -0.732943
C        -1.786641    2.506548   -1.862360
C        -0.298719    2.344533   -2.212660
H         0.226031    3.166247   -2.709159
C        -0.324644    1.018524   -2.984048
N        -1.338253    0.272667   -2.217370
C        -1.203459   -1.076153   -1.976583
N        -1.671204   -1.513262   -0.805183
C        -1.381416   -2.732728   -0.406501
O        -1.855948   -3.122848    0.807628
C        -2.246989   -2.134028    1.676952
C        -3.593383   -2.016827    2.003798
C        -4.008838   -0.994776    2.858660
C        -3.068362   -0.106396    3.367586
O        -3.484679    0.937063    4.171448
C        -3.605165    2.168863    3.611799
C        -3.551840    2.397473    2.232321
C        -3.691648    3.696812    1.745945
C        -3.888384    4.769490    2.612890
C        -3.948000    4.530118    3.987319
C        -3.807229    3.240470    4.488806
C        -1.712987   -0.252948    3.071817
C        -1.296100   -1.273067    2.226419
C        -0.638661   -3.645110   -1.161103
C        -0.081747   -4.934304   -0.620754
N         0.706474   -4.759976    0.464033
O        -0.282484   -6.012028   -1.156744
C        -0.310889   -3.232984   -2.454771
C        -0.584545   -1.945982   -2.890648
C         1.559877    2.869619    1.079548
C         1.544647    1.825984    1.912362
S         2.097493   -1.689142    0.987676
C         2.178590   -1.477099   -0.822328
C         3.472873   -0.848882   -1.336882
H         4.324396   -1.511685   -1.100130
N         3.688476    0.432239   -0.677811
C         4.882094    1.059502   -0.598406
C         4.907315    2.274822    0.301865
O         5.875019    0.707830   -1.232469
C         3.423509   -0.669036   -2.872376
N         4.625804   -0.408080   -3.435506
C         4.763295   -0.091976   -4.831751
O         2.391319   -0.772549   -3.521634
H        -1.050693    1.860224    0.795145
H        -0.298966    0.349933    0.205670
H        -1.975810    3.358888   -1.194712
H        -2.449049    2.547428   -2.737833
H         0.649692    0.505905   -2.988443
H        -0.635846    1.180797   -4.031197
H        -4.309679   -2.710964    1.561621
H        -5.062099   -0.861565    3.112204
H        -3.399996    1.563820    1.545981
H        -3.645125    3.864639    0.667209
H        -3.992452    5.783712    2.222660
H        -4.100539    5.360426    4.681154
H        -3.844007    3.035795    5.560178
H        -0.991477    0.453591    3.487931
H        -0.240186   -1.392683    1.943148
H         1.042802   -3.826703    0.751183
H         1.186269   -5.577258    0.818462
H         0.238249   -3.923299   -3.099223
H        -0.230006   -1.591952   -3.856760
H         1.916128    3.844261    1.428855
H         1.299220    0.797680    1.615458
H         1.870875    1.958997    2.948183
H         1.346716   -0.847803   -1.175450
H         2.059299   -2.442836   -1.333453
H         3.014995    0.621103    0.061600
H         4.573631    2.016834    1.317450
H         4.217624    3.036836   -0.094036
H         5.929199    2.669875    0.331906
H         5.374694   -0.161401   -2.780908
H         3.831654   -0.370221   -5.340969
H         5.599312   -0.650190   -5.282139
H         4.940607    0.985297   -4.993462
