-1 1
 OpenBabel05232414493D

 79 82  0  0  1  0  0  0  0  0999 V2000
    8.8440    4.3669    9.4451 O   0  0  0  0  0  0  0  0  0  0  0  0
    8.6402    3.1515    9.2986 C   0  0  0  0  0  0  0  0  0  0  0  0
    7.3096    2.6789    9.4062 N   0  0  0  0  0  0  0  0  0  0  0  0
    6.9455    1.4126   10.0121 C   0  0  0  0  0  0  0  0  0  0  0  0
    6.0602    1.6252   11.2476 C   0  0  0  0  0  0  0  0  0  0  0  0
    4.9261    2.4797   10.9215 N   0  0  0  0  0  0  0  0  0  0  0  0
    5.3894    3.7933   10.4700 C   0  0  0  0  0  0  0  0  0  0  0  0
    6.2281    3.6171    9.2101 C   0  0  0  0  0  0  0  0  0  0  0  0
    3.8062    1.9548   10.3343 C   0  0  0  0  0  0  0  0  0  0  0  0
    3.1009    2.7877    9.5621 N   0  0  0  0  0  0  0  0  0  0  0  0
    2.0447    2.3791    8.9082 C   0  0  0  0  0  0  0  0  0  0  0  0
    1.4566    3.3012    8.0833 O   0  0  0  0  0  0  0  0  0  0  0  0
    2.1332    4.4975    7.8898 C   0  0  0  0  0  0  0  0  0  0  0  0
    1.6666    5.6462    8.5139 C   0  0  0  0  0  0  0  0  0  0  0  0
    2.3675    6.8431    8.3604 C   0  0  0  0  0  0  0  0  0  0  0  0
    3.5217    6.8735    7.5818 C   0  0  0  0  0  0  0  0  0  0  0  0
    4.1960    8.0620    7.4651 O   0  0  0  0  0  0  0  0  0  0  0  0
    5.5325    8.0943    7.7598 C   0  0  0  0  0  0  0  0  0  0  0  0
    6.3044    9.0632    7.1177 C   0  0  0  0  0  0  0  0  0  0  0  0
    7.6661    9.1523    7.4017 C   0  0  0  0  0  0  0  0  0  0  0  0
    8.2625    8.2714    8.3038 C   0  0  0  0  0  0  0  0  0  0  0  0
    7.4863    7.3025    8.9400 C   0  0  0  0  0  0  0  0  0  0  0  0
    6.1187    7.2258    8.6839 C   0  0  0  0  0  0  0  0  0  0  0  0
    3.9636    5.7242    6.9217 C   0  0  0  0  0  0  0  0  0  0  0  0
    3.2680    4.5341    7.0835 C   0  0  0  0  0  0  0  0  0  0  0  0
    1.5237    1.0784    8.9805 C   0  0  0  0  0  0  0  0  0  0  0  0
    0.3668    0.5097    8.2248 C   0  0  0  0  0  0  0  0  0  0  0  0
   -0.2765    1.3417    7.3636 N   0  0  0  0  0  0  0  0  0  0  0  0
    0.0289   -0.6557    8.3636 O   0  0  0  0  0  0  0  0  0  0  0  0
    2.2394    0.2156    9.8285 C   0  0  0  0  0  0  0  0  0  0  0  0
    3.3684    0.6188   10.5074 C   0  0  0  0  0  0  0  0  0  0  0  0
    9.6645    2.1982    8.9866 C   0  0  0  0  0  3  0  0  0  0  0  0
    9.5019    0.9904    8.2745 C   0  0  0  0  0  0  0  0  0  0  0  0
    9.5135    1.1210    6.0431 S   0  0  0  0  0  0  0  0  0  0  0  0
    7.7561    0.9296    5.5934 C   0  0  0  0  0  0  0  0  0  0  0  0
    6.7487    1.9073    6.2373 C   0  0  2  0  0  0  0  0  0  0  0  0
    6.8540    1.8211    7.3282 H   0  0  0  0  0  0  0  0  0  0  0  0
    5.3913    1.5668    5.8721 N   0  0  0  0  0  0  0  0  0  0  0  0
    4.6129    0.7034    6.5686 C   0  0  0  0  0  0  0  0  0  0  0  0
    3.1891    0.5800    6.0538 C   0  0  0  0  0  0  0  0  0  0  0  0
    5.0143    0.0666    7.5297 O   0  0  0  0  0  0  0  0  0  0  0  0
    6.9344    3.3933    5.8955 C   0  0  0  0  0  0  0  0  0  0  0  0
    8.0859    3.9268    6.3102 N   0  0  0  0  0  0  0  0  0  0  0  0
    8.4075    5.3275    6.2354 C   0  0  0  0  0  0  0  0  0  0  0  0
    6.0379    4.0280    5.3358 O   0  0  0  0  0  0  0  0  0  0  0  0
    7.8634    0.8945   10.3166 H   0  0  0  0  0  0  0  0  0  0  0  0
    6.3976    0.7723    9.2943 H   0  0  0  0  0  0  0  0  0  0  0  0
    6.6368    2.1244   12.0428 H   0  0  0  0  0  0  0  0  0  0  0  0
    5.7222    0.6607   11.6470 H   0  0  0  0  0  0  0  0  0  0  0  0
    6.0047    4.2279   11.2733 H   0  0  0  0  0  0  0  0  0  0  0  0
    4.5250    4.4401   10.2819 H   0  0  0  0  0  0  0  0  0  0  0  0
    6.6684    4.5667    8.8892 H   0  0  0  0  0  0  0  0  0  0  0  0
    5.5535    3.2610    8.4084 H   0  0  0  0  0  0  0  0  0  0  0  0
    0.7799    5.5894    9.1473 H   0  0  0  0  0  0  0  0  0  0  0  0
    2.0427    7.7567    8.8608 H   0  0  0  0  0  0  0  0  0  0  0  0
    5.8235    9.7271    6.3973 H   0  0  0  0  0  0  0  0  0  0  0  0
    8.2699    9.9083    6.8934 H   0  0  0  0  0  0  0  0  0  0  0  0
    9.3361    8.3206    8.4962 H   0  0  0  0  0  0  0  0  0  0  0  0
    7.9523    6.5562    9.5903 H   0  0  0  0  0  0  0  0  0  0  0  0
    5.5082    6.4715    9.1810 H   0  0  0  0  0  0  0  0  0  0  0  0
    4.8664    5.7222    6.3062 H   0  0  0  0  0  0  0  0  0  0  0  0
    3.6495    3.6275    6.6122 H   0  0  0  0  0  0  0  0  0  0  0  0
    0.0114    2.3048    7.2515 H   0  0  0  0  0  0  0  0  0  0  0  0
   -1.0407    0.9528    6.8304 H   0  0  0  0  0  0  0  0  0  0  0  0
    1.8751   -0.8105    9.9072 H   0  0  0  0  0  0  0  0  0  0  0  0
    3.9163   -0.0884   11.1258 H   0  0  0  0  0  0  0  0  0  0  0  0
   10.6740    2.6104    9.0688 H   0  0  0  0  0  0  0  0  0  0  0  0
    8.5508    0.4511    8.3153 H   0  0  0  0  0  0  0  0  0  0  0  0
   10.3526    0.3041    8.2751 H   0  0  0  0  0  0  0  0  0  0  0  0
    7.4154   -0.0795    5.8718 H   0  0  0  0  0  0  0  0  0  0  0  0
    7.6790    1.0077    4.4969 H   0  0  0  0  0  0  0  0  0  0  0  0
    4.9793    2.1927    5.1856 H   0  0  0  0  0  0  0  0  0  0  0  0
    2.6058    1.4788    6.3051 H   0  0  0  0  0  0  0  0  0  0  0  0
    2.7109   -0.2824    6.5323 H   0  0  0  0  0  0  0  0  0  0  0  0
    3.1715    0.4600    4.9605 H   0  0  0  0  0  0  0  0  0  0  0  0
    8.8105    3.2760    6.6234 H   0  0  0  0  0  0  0  0  0  0  0  0
    8.9969    5.5879    7.1246 H   0  0  0  0  0  0  0  0  0  0  0  0
    7.4838    5.9217    6.2407 H   0  0  0  0  0  0  0  0  0  0  0  0
    8.9761    5.5766    5.3235 H   0  0  0  0  0  0  0  0  0  0  0  0
  2  3  1  0  0  0  0
  2  1  2  0  0  0  0
  3  4  1  0  0  0  0
  4 46  1  0  0  0  0
  4  5  1  0  0  0  0
  5 49  1  0  0  0  0
  5 48  1  0  0  0  0
  6  5  1  0  0  0  0
  7  6  1  0  0  0  0
  7 50  1  0  0  0  0
  8  3  1  0  0  0  0
  8  7  1  0  0  0  0
  9 31  2  0  0  0  0
  9  6  1  0  0  0  0
 10  9  1  0  0  0  0
 11 26  1  0  0  0  0
 11 10  2  0  0  0  0
 12 11  1  0  0  0  0
 13 12  1  0  0  0  0
 13 14  1  0  0  0  0
 14 54  1  0  0  0  0
 15 14  2  0  0  0  0
 15 55  1  0  0  0  0
 16 15  1  0  0  0  0
 17 16  1  0  0  0  0
 17 18  1  0  0  0  0
 18 23  1  0  0  0  0
 19 20  1  0  0  0  0
 19 18  2  0  0  0  0
 20 21  2  0  0  0  0
 21 58  1  0  0  0  0
 21 22  1  0  0  0  0
 22 59  1  0  0  0  0
 23 22  2  0  0  0  0
 23 60  1  0  0  0  0
 24 25  1  0  0  0  0
 24 16  2  0  0  0  0
 25 13  2  0  0  0  0
 26 30  2  0  0  0  0
 27 29  2  0  0  0  0
 27 26  1  0  0  0  0
 28 27  1  0  0  0  0
 30 65  1  0  0  0  0
 30 31  1  0  0  0  0
 31 66  1  0  0  0  0
 32 67  1  0  0  0  0
 32  2  1  0  0  0  0
 33 69  1  0  0  0  0
 33 68  1  0  0  0  0
 33 32  1  0  0  0  0
 34 33  1  0  0  0  0
 35 70  1  0  0  0  0
 35 34  1  0  0  0  0
 35 36  1  0  0  0  0
 36 37  1  1  0  0  0
 38 36  1  0  0  0  0
 38 39  1  0  0  0  0
 39 41  2  0  0  0  0
 40 73  1  0  0  0  0
 40 74  1  0  0  0  0
 40 39  1  0  0  0  0
 42 36  1  0  0  0  0
 42 43  1  0  0  0  0
 43 76  1  0  0  0  0
 44 78  1  0  0  0  0
 44 43  1  0  0  0  0
 44 77  1  0  0  0  0
 45 42  2  0  0  0  0
 47  4  1  0  0  0  0
 51  7  1  0  0  0  0
 52  8  1  0  0  0  0
 53  8  1  0  0  0  0
 56 19  1  0  0  0  0
 57 20  1  0  0  0  0
 61 24  1  0  0  0  0
 62 25  1  0  0  0  0
 63 28  1  0  0  0  0
 64 28  1  0  0  0  0
 71 35  1  0  0  0  0
 72 38  1  0  0  0  0
 75 40  1  0  0  0  0
 79 44  1  0  0  0  0
M  END
