79
-1 1
O         3.506462    0.981006    1.551902
C         3.339589   -0.217454    1.231008
N         2.003242   -0.742781    1.354848
C         1.690935   -2.020143    1.956675
C         0.822848   -1.863653    3.215727
N        -0.327997   -1.013004    2.933442
C         0.118244    0.322134    2.527777
C         0.914405    0.195662    1.236391
C        -1.437911   -1.525941    2.319712
N        -2.143559   -0.673472    1.566917
C        -3.186988   -1.070622    0.887374
O        -3.770915   -0.128182    0.080726
C        -3.083250    1.062163   -0.108043
C        -3.525822    2.210094    0.534635
C        -2.821568    3.403242    0.368808
C        -1.689127    3.433389   -0.441154
O        -1.012090    4.618707   -0.571500
C         0.314471    4.658996   -0.231936
C         1.095887    5.647975   -0.830837
C         2.447136    5.742692   -0.502224
C         3.024173    4.846955    0.398369
C         2.239823    3.856181    0.989597
C         0.880431    3.777331    0.691384
C        -1.269666    2.285033   -1.117815
C        -1.968281    1.098136   -0.942300
C        -3.699482   -2.376651    0.913177
C        -4.846720   -2.927909    0.131590
N        -5.501011   -2.068562   -0.694495
O        -5.171556   -4.102137    0.220857
C        -2.985687   -3.260723    1.741658
C        -1.867480   -2.870550    2.444830
C         4.320719   -1.057734    0.682616
C         4.154847   -2.341642   -0.029764
S         4.187281   -2.278881   -1.946580
C         2.427551   -2.397657   -2.382826
C         1.455666   -1.373875   -1.760493
H         1.550068   -1.437077   -0.666476
N         0.098534   -1.688659   -2.145966
C        -0.677581   -2.603675   -1.515676
C        -2.084981   -2.734272   -2.070806
O        -0.283740   -3.275361   -0.575788
C         1.694930    0.087077   -2.164424
N         2.760374    0.667530   -1.611144
C         3.110050    2.048660   -1.820859
O         0.911245    0.662231   -2.923815
H         2.632117   -2.515750    2.232341
H         1.144908   -2.673578    1.246597
H         1.401961   -1.381409    4.019090
H         0.502194   -2.845678    3.587275
H         0.764909    0.718423    3.325419
H        -0.751141    0.977324    2.401501
H         1.349351    1.157338    0.946856
H         0.209927   -0.119254    0.441872
H        -4.397283    2.155575    1.188937
H        -3.127357    4.315918    0.882743
H         0.631218    6.322734   -1.551930
H         3.058982    6.515124   -0.975208
H         4.091297    4.900700    0.623118
H         2.692030    3.090017    1.628330
H         0.262047    3.008628    1.154952
H        -0.385276    2.290532   -1.760337
H        -1.609301    0.189061   -1.424616
H        -5.222540   -1.099058   -0.768884
H        -6.258931   -2.445029   -1.245284
H        -3.343226   -4.291315    1.784134
H        -1.319378   -3.591139    3.047707
H         5.330376   -0.636716    0.703913
H         3.224851   -2.885089    0.185312
H         4.983767   -3.039568    0.162940
H         2.053011   -3.392182   -2.097330
H         2.384729   -2.326101   -3.481137
H        -0.271206   -1.083132   -2.874666
H        -2.697845   -1.866810   -1.783135
H        -2.549797   -3.633561   -1.650201
H        -2.076443   -2.793431   -3.169260
H         3.359656    0.118942   -0.983849
H         3.754277    2.358912   -0.989663
H         2.210166    2.681245   -1.819461
H         3.636848    2.200730   -2.777783
