-1 1
 OpenBabel05192410563D

 79 82  0  0  1  0  0  0  0  0999 V2000
    3.5065    0.9810    1.5519 O   0  0  0  0  0  0  0  0  0  0  0  0
    3.3396   -0.2175    1.2310 C   0  0  0  0  0  0  0  0  0  0  0  0
    2.0032   -0.7428    1.3548 N   0  0  0  0  0  0  0  0  0  0  0  0
    1.6909   -2.0201    1.9567 C   0  0  0  0  0  0  0  0  0  0  0  0
    0.8228   -1.8637    3.2157 C   0  0  0  0  0  0  0  0  0  0  0  0
   -0.3280   -1.0130    2.9334 N   0  0  0  0  0  0  0  0  0  0  0  0
    0.1182    0.3221    2.5278 C   0  0  0  0  0  0  0  0  0  0  0  0
    0.9144    0.1957    1.2364 C   0  0  0  0  0  0  0  0  0  0  0  0
   -1.4379   -1.5259    2.3197 C   0  0  0  0  0  0  0  0  0  0  0  0
   -2.1436   -0.6735    1.5669 N   0  0  0  0  0  0  0  0  0  0  0  0
   -3.1870   -1.0706    0.8874 C   0  0  0  0  0  0  0  0  0  0  0  0
   -3.7709   -0.1282    0.0807 O   0  0  0  0  0  0  0  0  0  0  0  0
   -3.0833    1.0622   -0.1080 C   0  0  0  0  0  0  0  0  0  0  0  0
   -3.5258    2.2101    0.5346 C   0  0  0  0  0  0  0  0  0  0  0  0
   -2.8216    3.4032    0.3688 C   0  0  0  0  0  0  0  0  0  0  0  0
   -1.6891    3.4334   -0.4412 C   0  0  0  0  0  0  0  0  0  0  0  0
   -1.0121    4.6187   -0.5715 O   0  0  0  0  0  0  0  0  0  0  0  0
    0.3145    4.6590   -0.2319 C   0  0  0  0  0  0  0  0  0  0  0  0
    1.0959    5.6480   -0.8308 C   0  0  0  0  0  0  0  0  0  0  0  0
    2.4471    5.7427   -0.5022 C   0  0  0  0  0  0  0  0  0  0  0  0
    3.0242    4.8470    0.3984 C   0  0  0  0  0  0  0  0  0  0  0  0
    2.2398    3.8562    0.9896 C   0  0  0  0  0  0  0  0  0  0  0  0
    0.8804    3.7773    0.6914 C   0  0  0  0  0  0  0  0  0  0  0  0
   -1.2697    2.2850   -1.1178 C   0  0  0  0  0  0  0  0  0  0  0  0
   -1.9683    1.0981   -0.9423 C   0  0  0  0  0  0  0  0  0  0  0  0
   -3.6995   -2.3767    0.9132 C   0  0  0  0  0  0  0  0  0  0  0  0
   -4.8467   -2.9279    0.1316 C   0  0  0  0  0  0  0  0  0  0  0  0
   -5.5010   -2.0686   -0.6945 N   0  0  0  0  0  0  0  0  0  0  0  0
   -5.1716   -4.1021    0.2209 O   0  0  0  0  0  0  0  0  0  0  0  0
   -2.9857   -3.2607    1.7417 C   0  0  0  0  0  0  0  0  0  0  0  0
   -1.8675   -2.8706    2.4448 C   0  0  0  0  0  0  0  0  0  0  0  0
    4.3207   -1.0577    0.6826 C   0  0  0  0  0  3  0  0  0  0  0  0
    4.1548   -2.3416   -0.0298 C   0  0  0  0  0  0  0  0  0  0  0  0
    4.1873   -2.2789   -1.9466 S   0  0  0  0  0  0  0  0  0  0  0  0
    2.4276   -2.3977   -2.3828 C   0  0  0  0  0  0  0  0  0  0  0  0
    1.4557   -1.3739   -1.7605 C   0  0  2  0  0  0  0  0  0  0  0  0
    1.5501   -1.4371   -0.6665 H   0  0  0  0  0  0  0  0  0  0  0  0
    0.0985   -1.6887   -2.1460 N   0  0  0  0  0  0  0  0  0  0  0  0
   -0.6776   -2.6037   -1.5157 C   0  0  0  0  0  0  0  0  0  0  0  0
   -2.0850   -2.7343   -2.0708 C   0  0  0  0  0  0  0  0  0  0  0  0
   -0.2837   -3.2754   -0.5758 O   0  0  0  0  0  0  0  0  0  0  0  0
    1.6949    0.0871   -2.1644 C   0  0  0  0  0  0  0  0  0  0  0  0
    2.7604    0.6675   -1.6111 N   0  0  0  0  0  0  0  0  0  0  0  0
    3.1101    2.0487   -1.8209 C   0  0  0  0  0  0  0  0  0  0  0  0
    0.9112    0.6622   -2.9238 O   0  0  0  0  0  0  0  0  0  0  0  0
    2.6321   -2.5158    2.2323 H   0  0  0  0  0  0  0  0  0  0  0  0
    1.1449   -2.6736    1.2466 H   0  0  0  0  0  0  0  0  0  0  0  0
    1.4020   -1.3814    4.0191 H   0  0  0  0  0  0  0  0  0  0  0  0
    0.5022   -2.8457    3.5873 H   0  0  0  0  0  0  0  0  0  0  0  0
    0.7649    0.7184    3.3254 H   0  0  0  0  0  0  0  0  0  0  0  0
   -0.7511    0.9773    2.4015 H   0  0  0  0  0  0  0  0  0  0  0  0
    1.3494    1.1573    0.9469 H   0  0  0  0  0  0  0  0  0  0  0  0
    0.2099   -0.1193    0.4419 H   0  0  0  0  0  0  0  0  0  0  0  0
   -4.3973    2.1556    1.1889 H   0  0  0  0  0  0  0  0  0  0  0  0
   -3.1274    4.3159    0.8827 H   0  0  0  0  0  0  0  0  0  0  0  0
    0.6312    6.3227   -1.5519 H   0  0  0  0  0  0  0  0  0  0  0  0
    3.0590    6.5151   -0.9752 H   0  0  0  0  0  0  0  0  0  0  0  0
    4.0913    4.9007    0.6231 H   0  0  0  0  0  0  0  0  0  0  0  0
    2.6920    3.0900    1.6283 H   0  0  0  0  0  0  0  0  0  0  0  0
    0.2620    3.0086    1.1550 H   0  0  0  0  0  0  0  0  0  0  0  0
   -0.3853    2.2905   -1.7603 H   0  0  0  0  0  0  0  0  0  0  0  0
   -1.6093    0.1891   -1.4246 H   0  0  0  0  0  0  0  0  0  0  0  0
   -5.2225   -1.0991   -0.7689 H   0  0  0  0  0  0  0  0  0  0  0  0
   -6.2589   -2.4450   -1.2453 H   0  0  0  0  0  0  0  0  0  0  0  0
   -3.3432   -4.2913    1.7841 H   0  0  0  0  0  0  0  0  0  0  0  0
   -1.3194   -3.5911    3.0477 H   0  0  0  0  0  0  0  0  0  0  0  0
    5.3304   -0.6367    0.7039 H   0  0  0  0  0  0  0  0  0  0  0  0
    3.2249   -2.8851    0.1853 H   0  0  0  0  0  0  0  0  0  0  0  0
    4.9838   -3.0396    0.1629 H   0  0  0  0  0  0  0  0  0  0  0  0
    2.0530   -3.3922   -2.0973 H   0  0  0  0  0  0  0  0  0  0  0  0
    2.3847   -2.3261   -3.4811 H   0  0  0  0  0  0  0  0  0  0  0  0
   -0.2712   -1.0831   -2.8747 H   0  0  0  0  0  0  0  0  0  0  0  0
   -2.6978   -1.8668   -1.7831 H   0  0  0  0  0  0  0  0  0  0  0  0
   -2.5498   -3.6336   -1.6502 H   0  0  0  0  0  0  0  0  0  0  0  0
   -2.0764   -2.7934   -3.1693 H   0  0  0  0  0  0  0  0  0  0  0  0
    3.3597    0.1189   -0.9838 H   0  0  0  0  0  0  0  0  0  0  0  0
    3.7543    2.3589   -0.9897 H   0  0  0  0  0  0  0  0  0  0  0  0
    2.2102    2.6812   -1.8195 H   0  0  0  0  0  0  0  0  0  0  0  0
    3.6368    2.2007   -2.7778 H   0  0  0  0  0  0  0  0  0  0  0  0
  2  3  1  0  0  0  0
  2  1  2  0  0  0  0
  3  4  1  0  0  0  0
  4 46  1  0  0  0  0
  4  5  1  0  0  0  0
  5 49  1  0  0  0  0
  5 48  1  0  0  0  0
  6  5  1  0  0  0  0
  7  6  1  0  0  0  0
  7 50  1  0  0  0  0
  8  3  1  0  0  0  0
  8  7  1  0  0  0  0
  9 31  2  0  0  0  0
  9  6  1  0  0  0  0
 10  9  1  0  0  0  0
 11 26  1  0  0  0  0
 11 10  2  0  0  0  0
 12 11  1  0  0  0  0
 13 12  1  0  0  0  0
 13 14  1  0  0  0  0
 14 54  1  0  0  0  0
 15 14  2  0  0  0  0
 15 55  1  0  0  0  0
 16 15  1  0  0  0  0
 17 16  1  0  0  0  0
 17 18  1  0  0  0  0
 18 23  1  0  0  0  0
 19 20  1  0  0  0  0
 19 18  2  0  0  0  0
 20 21  2  0  0  0  0
 21 58  1  0  0  0  0
 21 22  1  0  0  0  0
 22 59  1  0  0  0  0
 23 22  2  0  0  0  0
 23 60  1  0  0  0  0
 24 25  1  0  0  0  0
 24 16  2  0  0  0  0
 25 13  2  0  0  0  0
 26 30  2  0  0  0  0
 27 29  2  0  0  0  0
 27 26  1  0  0  0  0
 28 27  1  0  0  0  0
 30 65  1  0  0  0  0
 30 31  1  0  0  0  0
 31 66  1  0  0  0  0
 32 67  1  0  0  0  0
 32  2  1  0  0  0  0
 33 69  1  0  0  0  0
 33 68  1  0  0  0  0
 33 32  1  0  0  0  0
 34 33  1  0  0  0  0
 35 70  1  0  0  0  0
 35 34  1  0  0  0  0
 35 36  1  0  0  0  0
 36 37  1  1  0  0  0
 38 36  1  0  0  0  0
 38 39  1  0  0  0  0
 39 41  2  0  0  0  0
 40 73  1  0  0  0  0
 40 74  1  0  0  0  0
 40 39  1  0  0  0  0
 42 36  1  0  0  0  0
 42 43  1  0  0  0  0
 43 76  1  0  0  0  0
 44 78  1  0  0  0  0
 44 43  1  0  0  0  0
 44 77  1  0  0  0  0
 45 42  2  0  0  0  0
 47  4  1  0  0  0  0
 51  7  1  0  0  0  0
 52  8  1  0  0  0  0
 53  8  1  0  0  0  0
 56 19  1  0  0  0  0
 57 20  1  0  0  0  0
 61 24  1  0  0  0  0
 62 25  1  0  0  0  0
 63 28  1  0  0  0  0
 64 28  1  0  0  0  0
 71 35  1  0  0  0  0
 72 38  1  0  0  0  0
 75 40  1  0  0  0  0
 79 44  1  0  0  0  0
M  END
