-1 1
 OpenBabel05232413493D

 79 81  0  0  1  0  0  0  0  0999 V2000
    3.5713    1.0729    1.7038 O   0  0  0  0  0  0  0  0  0  0  0  0
    3.4176   -0.1433    1.6846 C   0  0  0  0  0  0  0  0  0  0  0  0
    2.2091   -0.7207    1.4102 N   0  0  0  0  0  0  0  0  0  0  0  0
    1.7991   -2.0607    1.8117 C   0  0  0  0  0  0  0  0  0  0  0  0
    0.8552   -1.9743    3.0206 C   0  0  0  0  0  0  0  0  0  0  0  0
   -0.2618   -1.0838    2.7426 N   0  0  0  0  0  0  0  0  0  0  0  0
    0.1878    0.2514    2.3525 C   0  0  0  0  0  0  0  0  0  0  0  0
    1.0833    0.1541    1.1219 C   0  0  0  0  0  0  0  0  0  0  0  0
   -1.4356   -1.5589    2.2114 C   0  0  0  0  0  0  0  0  0  0  0  0
   -2.1284   -0.6967    1.4655 N   0  0  0  0  0  0  0  0  0  0  0  0
   -3.2362   -1.0522    0.8677 C   0  0  0  0  0  0  0  0  0  0  0  0
   -3.8205   -0.1053    0.0709 O   0  0  0  0  0  0  0  0  0  0  0  0
   -3.1446    1.0961   -0.0959 C   0  0  0  0  0  0  0  0  0  0  0  0
   -3.6229    2.2271    0.5519 C   0  0  0  0  0  0  0  0  0  0  0  0
   -2.9341    3.4344    0.4263 C   0  0  0  0  0  0  0  0  0  0  0  0
   -1.7771    3.4911   -0.3468 C   0  0  0  0  0  0  0  0  0  0  0  0
   -1.1236    4.6925   -0.4422 O   0  0  0  0  0  0  0  0  0  0  0  0
    0.2330    4.7262   -0.2675 C   0  0  0  0  0  0  0  0  0  0  0  0
    0.9486    5.6818   -0.9886 C   0  0  0  0  0  0  0  0  0  0  0  0
    2.3293    5.7752   -0.8215 C   0  0  0  0  0  0  0  0  0  0  0  0
    2.9980    4.9130    0.0468 C   0  0  0  0  0  0  0  0  0  0  0  0
    2.2764    3.9592    0.7654 C   0  0  0  0  0  0  0  0  0  0  0  0
    0.8936    3.8735    0.6208 C   0  0  0  0  0  0  0  0  0  0  0  0
   -1.3199    2.3586   -1.0253 C   0  0  0  0  0  0  0  0  0  0  0  0
   -2.0056    1.1588   -0.8947 C   0  0  0  0  0  0  0  0  0  0  0  0
   -3.8182   -2.3235    0.9784 C   0  0  0  0  0  0  0  0  0  0  0  0
   -5.0451   -2.8341    0.2934 C   0  0  0  0  0  0  0  0  0  0  0  0
   -5.6772   -1.9819   -0.5558 N   0  0  0  0  0  0  0  0  0  0  0  0
   -5.4475   -3.9720    0.4786 O   0  0  0  0  0  0  0  0  0  0  0  0
   -3.1154   -3.2126    1.8082 C   0  0  0  0  0  0  0  0  0  0  0  0
   -1.9379   -2.8624    2.4325 C   0  0  0  0  0  0  0  0  0  0  0  0
    4.6030   -1.0170    1.9510 C   0  0  0  0  0  0  0  0  0  0  0  0
    5.0090   -2.0130    1.1614 C   0  0  0  0  0  0  0  0  0  0  0  0
    4.0408   -2.5194   -2.2923 S   0  0  0  0  0  1  0  0  0  0  0  0
    2.3155   -2.4466   -2.8899 C   0  0  0  0  0  0  0  0  0  0  0  0
    1.3709   -1.5807   -2.0266 C   0  0  2  0  0  0  0  0  0  0  0  0
    1.5384   -1.8757   -0.9827 H   0  0  0  0  0  0  0  0  0  0  0  0
   -0.0228   -1.8268   -2.3303 N   0  0  0  0  0  0  0  0  0  0  0  0
   -0.8612   -2.5351   -1.5397 C   0  0  0  0  0  0  0  0  0  0  0  0
   -2.2841   -2.6469   -2.0600 C   0  0  0  0  0  0  0  0  0  0  0  0
   -0.5232   -3.0472   -0.4820 O   0  0  0  0  0  0  0  0  0  0  0  0
    1.6213   -0.0714   -2.1431 C   0  0  0  0  0  0  0  0  0  0  0  0
    2.8437    0.3159   -1.7589 N   0  0  0  0  0  0  0  0  0  0  0  0
    3.2785    1.6875   -1.7801 C   0  0  0  0  0  0  0  0  0  0  0  0
    0.7350    0.6911   -2.5328 O   0  0  0  0  0  0  0  0  0  0  0  0
    2.6765   -2.6673    2.0566 H   0  0  0  0  0  0  0  0  0  0  0  0
    1.2629   -2.5412    0.9769 H   0  0  0  0  0  0  0  0  0  0  0  0
    1.4039   -1.5799    3.8934 H   0  0  0  0  0  0  0  0  0  0  0  0
    0.4968   -2.9760    3.2839 H   0  0  0  0  0  0  0  0  0  0  0  0
    0.7598    0.6795    3.1924 H   0  0  0  0  0  0  0  0  0  0  0  0
   -0.6846    0.8819    2.1520 H   0  0  0  0  0  0  0  0  0  0  0  0
    1.4667    1.1310    0.8118 H   0  0  0  0  0  0  0  0  0  0  0  0
    0.4988   -0.2698    0.2911 H   0  0  0  0  0  0  0  0  0  0  0  0
   -4.5130    2.1494    1.1785 H   0  0  0  0  0  0  0  0  0  0  0  0
   -3.2723    4.3350    0.9414 H   0  0  0  0  0  0  0  0  0  0  0  0
    0.4088    6.3323   -1.6789 H   0  0  0  0  0  0  0  0  0  0  0  0
    2.8885    6.5200   -1.3930 H   0  0  0  0  0  0  0  0  0  0  0  0
    4.0831    4.9692    0.1530 H   0  0  0  0  0  0  0  0  0  0  0  0
    2.7902    3.2419    1.4106 H   0  0  0  0  0  0  0  0  0  0  0  0
    0.3252    3.1296    1.1810 H   0  0  0  0  0  0  0  0  0  0  0  0
   -0.4114    2.3701   -1.6322 H   0  0  0  0  0  0  0  0  0  0  0  0
   -1.6083    0.2733   -1.3930 H   0  0  0  0  0  0  0  0  0  0  0  0
   -5.3433   -1.0376   -0.6964 H   0  0  0  0  0  0  0  0  0  0  0  0
   -6.4941   -2.3304   -1.0362 H   0  0  0  0  0  0  0  0  0  0  0  0
   -3.5367   -4.2131    1.9244 H   0  0  0  0  0  0  0  0  0  0  0  0
   -1.4100   -3.5856    3.0503 H   0  0  0  0  0  0  0  0  0  0  0  0
    5.2222   -0.6610    2.7813 H   0  0  0  0  0  0  0  0  0  0  0  0
    4.4541   -2.3271    0.2625 H   0  0  0  0  0  0  0  0  0  0  0  0
    5.9594   -2.5173    1.3606 H   0  0  0  0  0  0  0  0  0  0  0  0
    1.8788   -3.4574   -2.8857 H   0  0  0  0  0  0  0  0  0  0  0  0
    2.2704   -2.0824   -3.9325 H   0  0  0  0  0  0  0  0  0  0  0  0
   -0.4045   -1.2985   -3.1056 H   0  0  0  0  0  0  0  0  0  0  0  0
   -2.8671   -1.7617   -1.7648 H   0  0  0  0  0  0  0  0  0  0  0  0
   -2.7570   -3.5260   -1.6060 H   0  0  0  0  0  0  0  0  0  0  0  0
   -2.3148   -2.7284   -3.1560 H   0  0  0  0  0  0  0  0  0  0  0  0
    3.5401   -0.4522   -1.6803 H   0  0  0  0  0  0  0  0  0  0  0  0
    3.9034    1.8867   -0.8978 H   0  0  0  0  0  0  0  0  0  0  0  0
    2.4030    2.3494   -1.7422 H   0  0  0  0  0  0  0  0  0  0  0  0
    3.8537    1.9262   -2.6912 H   0  0  0  0  0  0  0  0  0  0  0  0
  2  1  2  0  0  0  0
  2 32  1  0  0  0  0
  3  2  1  0  0  0  0
  3  4  1  0  0  0  0
  4 46  1  0  0  0  0
  4  5  1  0  0  0  0
  5 49  1  0  0  0  0
  5 48  1  0  0  0  0
  6  5  1  0  0  0  0
  7  6  1  0  0  0  0
  7 50  1  0  0  0  0
  8  3  1  0  0  0  0
  8  7  1  0  0  0  0
  9 31  2  0  0  0  0
  9  6  1  0  0  0  0
 10  9  1  0  0  0  0
 11 26  1  0  0  0  0
 11 10  2  0  0  0  0
 12 11  1  0  0  0  0
 13 12  1  0  0  0  0
 13 14  1  0  0  0  0
 14 54  1  0  0  0  0
 15 14  2  0  0  0  0
 15 55  1  0  0  0  0
 16 15  1  0  0  0  0
 17 16  1  0  0  0  0
 17 18  1  0  0  0  0
 18 23  1  0  0  0  0
 19 20  1  0  0  0  0
 19 18  2  0  0  0  0
 20 21  2  0  0  0  0
 21 58  1  0  0  0  0
 21 22  1  0  0  0  0
 22 59  1  0  0  0  0
 23 22  2  0  0  0  0
 23 60  1  0  0  0  0
 24 25  1  0  0  0  0
 24 16  2  0  0  0  0
 25 13  2  0  0  0  0
 26 30  2  0  0  0  0
 27 29  2  0  0  0  0
 27 26  1  0  0  0  0
 28 27  1  0  0  0  0
 30 65  1  0  0  0  0
 30 31  1  0  0  0  0
 31 66  1  0  0  0  0
 32 67  1  0  0  0  0
 33 69  1  0  0  0  0
 33 32  2  0  0  0  0
 35 70  1  0  0  0  0
 35 34  1  0  0  0  0
 35 36  1  0  0  0  0
 36 37  1  1  0  0  0
 38 36  1  0  0  0  0
 38 39  1  0  0  0  0
 39 41  2  0  0  0  0
 40 73  1  0  0  0  0
 40 74  1  0  0  0  0
 40 39  1  0  0  0  0
 42 36  1  0  0  0  0
 42 43  1  0  0  0  0
 43 76  1  0  0  0  0
 44 43  1  0  0  0  0
 44 78  1  0  0  0  0
 44 77  1  0  0  0  0
 45 42  2  0  0  0  0
 47  4  1  0  0  0  0
 51  7  1  0  0  0  0
 52  8  1  0  0  0  0
 53  8  1  0  0  0  0
 56 19  1  0  0  0  0
 57 20  1  0  0  0  0
 61 24  1  0  0  0  0
 62 25  1  0  0  0  0
 63 28  1  0  0  0  0
 64 28  1  0  0  0  0
 68 33  1  0  0  0  0
 71 35  1  0  0  0  0
 72 38  1  0  0  0  0
 75 40  1  0  0  0  0
 79 44  1  0  0  0  0
M  END
