83
-1 1
O         2.504485    1.567391   -5.147778
C         2.125480    1.616103   -3.977094
N         2.661355    0.548694   -3.079930
C         1.934208   -0.538382   -2.687428
C         0.518448   -0.556799   -2.775524
C        -0.224469   -1.627759   -2.288472
C        -1.707276   -1.510672   -2.222810
C        -2.523083   -1.586872   -3.352456
C        -3.913555   -1.441193   -3.264121
C        -4.557101   -1.196775   -2.047201
C        -6.018454   -0.977435   -1.887675
N        -6.754913   -0.836964   -3.028975
O        -6.555353   -0.922485   -0.787274
C        -2.323508   -1.281900   -0.978599
C        -3.733073   -1.128617   -0.907888
N        -4.062881   -0.874403    0.391776
H        -5.026696   -0.765604    0.683127
C        -2.912992   -0.848379    1.152621
C        -1.822191   -1.093265    0.360762
C        -0.426906   -1.088349    0.907271
C        -0.395605   -0.337712    2.237808
C        -1.486906   -0.831676    3.197384
C        -2.884328   -0.544582    2.615248
C        -1.329923   -0.315940    4.654287
C        -1.187201    1.206822    4.726596
O        -2.455571   -0.735720    5.422540
C        -0.123652   -0.966602    5.326327
C         0.408917   -2.757265   -1.751235
C         1.799062   -2.764989   -1.685676
C         2.556080   -1.683214   -2.124384
C         4.106038    0.477146   -3.065938
C         1.331800    2.585041   -3.354101
C         0.997952    2.640401   -1.936316
S         2.448933    2.981769   -0.663801
C         2.381419    1.375533    0.187853
C         3.133268    1.292103    1.524543
H         4.117035    1.784134    1.413944
N         3.319096   -0.088416    1.902967
C         4.131033   -0.945814    1.235495
C         4.050266   -2.386710    1.697568
O         4.830846   -0.607285    0.297395
C         2.376487    1.959558    2.685082
N         1.935984    3.206462    2.444243
C         1.171871    3.952508    3.411248
O         2.198696    1.370979    3.748293
H         0.009982    0.314007   -3.194861
H        -2.059059   -1.766280   -4.324313
H        -4.498782   -1.541265   -4.182104
H        -6.312855   -0.625806   -3.910936
H        -7.723931   -0.576070   -2.907230
H         0.270560   -0.637892    0.187737
H        -0.064451   -2.121440    1.049449
H        -0.535778    0.741686    2.047598
H         0.595578   -0.439381    2.698399
H        -1.398055   -1.931436    3.259112
H        -3.159439    0.517014    2.766632
H        -3.639308   -1.147998    3.145659
H        -1.997596    1.723957    4.186254
H        -0.224195    1.528427    4.306871
H        -1.224450    1.522000    5.780305
H        -3.211118   -0.209290    5.147620
H         0.813766   -0.641471    4.855116
H        -0.202039   -2.063001    5.277013
H        -0.094346   -0.672216    6.385591
H        -0.183777   -3.591458   -1.370113
H         2.317335   -3.636204   -1.272921
H         3.638663   -1.717713   -2.011117
H         4.496724   -0.308276   -3.740296
H         4.484266    0.287956   -2.047871
H         4.499686    1.440944   -3.408238
H         1.047058    3.429370   -3.987060
H         0.601179    1.708141   -1.502806
H         0.280862    3.443013   -1.719532
H         2.805131    0.621075   -0.484017
H         1.326403    1.117745    0.362365
H         2.890355   -0.345512    2.786255
H         3.733627   -2.489516    2.745266
H         5.025108   -2.867161    1.548989
H         3.312803   -2.897236    1.058809
H         1.994196    3.543361    1.473573
H         1.439784    3.615092    4.421029
H         0.085729    3.811001    3.280793
H         1.396186    5.024548    3.316874
