83
-1 1
O         5.746605   -0.135568  -12.715455
C         5.318886   -0.190899  -11.569767
N         5.839118   -1.276807  -10.722148
C         5.103033   -2.364374  -10.325709
C         3.691715   -2.396675  -10.437248
C         2.951226   -3.472849   -9.955862
C         1.467369   -3.365023   -9.895365
C         0.649685   -3.482921  -11.019744
C        -0.742297   -3.350708  -10.930249
C        -1.383831   -3.081538   -9.717588
C        -2.848107   -2.879240   -9.558273
N        -3.588584   -2.769045  -10.700424
O        -3.382907   -2.812620   -8.457887
C         0.854225   -3.108497   -8.655377
C        -0.557438   -2.973272   -8.583216
N        -0.885718   -2.695881   -7.288372
H        -1.849553   -2.596928   -6.993749
C         0.266409   -2.639000   -6.532267
C         1.358498   -2.883572   -7.322768
C         2.755889   -2.849226   -6.780901
C         2.779366   -2.090943   -5.454158
C         1.693595   -2.590040   -4.491109
C         0.294664   -2.314247   -5.074275
C         1.848399   -2.067304   -3.036498
C         1.987766   -0.544034   -2.972492
O         0.721445   -2.484331   -2.267781
C         3.055586   -2.712060   -2.360836
C         3.588737   -4.595119   -9.411863
C         4.977484   -4.590226   -9.328458
C         5.729086   -3.499632   -9.753913
C         7.285852   -1.347124  -10.681297
C         4.459326    0.758238  -10.950826
C         4.095841    0.769928   -9.593947
S         5.688993    1.290447   -8.111537
C         5.616337   -0.363499   -7.355595
C         6.385731   -0.554455   -6.038364
H         7.387707   -0.101908   -6.147594
N         6.512630   -1.959017   -5.723590
C         7.268256   -2.830756   -6.432492
C         7.132526   -4.279514   -6.005406
O         7.965799   -2.503229   -7.377664
C         5.678417    0.089563   -4.834856
N         5.328322    1.375263   -4.997893
C         4.609110    2.111812   -3.991522
O         5.457110   -0.552839   -3.809288
H         3.173176   -1.533489  -10.857526
H         1.111859   -3.686777  -11.987736
H        -1.330260   -3.484078  -11.842195
H        -3.151074   -2.564138  -11.586137
H        -4.560963   -2.519692  -10.580846
H         3.443789   -2.386589   -7.502723
H         3.137714   -3.874862   -6.635251
H         2.626935   -1.014757   -5.651596
H         3.772406   -2.177884   -4.994459
H         1.789374   -3.689013   -4.425088
H         0.017597   -1.251317   -4.936950
H        -0.458425   -2.912722   -4.535787
H         1.173649   -0.030943   -3.511057
H         2.947315   -0.222859   -3.399632
H         1.957166   -0.223120   -1.920345
H        -0.032090   -1.954273   -2.541208
H         3.992998   -2.379654   -2.826996
H         2.982502   -3.808913   -2.410475
H         3.078209   -2.418046   -1.301242
H         2.999107   -5.433601   -9.035611
H         5.499009   -5.455317   -8.907878
H         6.808741   -3.520105   -9.616128
H         7.687283   -2.136649  -11.343695
H         7.640678   -1.530410   -9.654650
H         7.687291   -0.385217  -11.018095
H         4.235370    1.626914  -11.575083
H         3.931110   -0.185590   -9.088877
H         3.368344    1.528243   -9.292250
H         6.020538   -1.086762   -8.074139
H         4.563631   -0.631651   -7.172166
H         6.083276   -2.229494   -4.844033
H         6.838996   -4.395802   -4.952363
H         8.080738   -4.798792   -6.191670
H         6.356775   -4.740692   -6.636073
H         5.396240    1.752779   -5.957272
H         4.797316    1.656789   -3.010326
H         3.520534    2.103393   -4.170790
H         4.948087    3.158017   -3.976230
