83
-1 1
O         1.216647    3.839302   -4.702245
C         1.244171    2.964709   -3.851703
N         1.936519    1.788899   -4.034183
C         1.689069    0.606131   -3.275986
C         0.402664    0.062219   -3.250543
C         0.123256   -1.065965   -2.475445
C        -1.274602   -1.566171   -2.367844
C        -1.903836   -2.205664   -3.438670
C        -3.217223   -2.681869   -3.343663
C        -3.970898   -2.536775   -2.175566
C        -5.378252   -2.990084   -2.010041
N        -6.031394   -3.414453   -3.130490
O        -5.940472   -2.989186   -0.921741
C        -2.002918   -1.402242   -1.175857
C        -3.332753   -1.900006   -1.095165
N        -3.810560   -1.615352    0.149164
H        -4.726969   -1.924408    0.450269
C        -2.838899   -0.947474    0.863984
C        -1.717921   -0.780385    0.094102
C        -0.503018   -0.056994    0.589773
C        -0.806583    0.683557    1.895789
C        -1.627638   -0.163891    2.878910
C        -3.004163   -0.488285    2.274087
C        -1.732417    0.439347    4.308164
C        -2.117764    1.921682    4.289575
O        -2.703077   -0.287132    5.060543
C        -0.425134    0.244023    5.066377
C         1.162491   -1.677249   -1.765703
C         2.453824   -1.158989   -1.826679
C         2.721594   -0.012768   -2.571352
C         2.770919    1.649746   -5.211480
C         0.551132    3.187134   -2.542680
C         1.086973    2.959781   -1.341873
S         4.297677    1.678675    0.191379
C         2.901178    0.799805    0.975482
C         3.275369   -0.018162    2.231763
H         4.209937   -0.556821    1.999766
N         2.253937   -0.970868    2.618765
C         2.063061   -2.163178    2.014730
C         0.958371   -3.020047    2.610129
O         2.683801   -2.537528    1.031337
C         3.490517    0.887027    3.452202
N         4.420197    1.838435    3.287404
C         4.650004    2.862804    4.269820
O         2.828396    0.735380    4.480892
H        -0.400776    0.556326   -3.802276
H        -1.344706   -2.351138   -4.365452
H        -3.637468   -3.204435   -4.206981
H        -5.680306   -3.211090   -4.053704
H        -7.013550   -3.629428   -3.026359
H        -0.131998    0.650040   -0.168339
H         0.327557   -0.760816    0.745135
H        -1.365926    1.606908    1.663703
H         0.143190    0.990267    2.357974
H        -1.108453   -1.129863    2.996971
H        -3.662229    0.402139    2.299614
H        -3.499143   -1.271902    2.869498
H        -3.039427    2.096244    3.708950
H        -1.323438    2.540727    3.850367
H        -2.292342    2.263229    5.320639
H        -3.573592   -0.043263    4.734593
H         0.432911    0.729716    4.582341
H        -0.209950   -0.831475    5.158480
H        -0.517683    0.652735    6.083196
H         0.965735   -2.543022   -1.129785
H         3.237782   -1.617053   -1.221549
H         3.712723    0.442928   -2.530190
H         2.302735    0.982149   -5.955447
H         3.750164    1.231822   -4.935589
H         2.903259    2.640627   -5.660393
H        -0.402498    3.714474   -2.645241
H         2.073504    2.499136   -1.191732
H         0.555594    3.271156   -0.437524
H         2.468742    0.086295    0.262375
H         2.094240    1.504720    1.248371
H         1.839091   -0.776505    3.526939
H         0.668523   -2.717380    3.626198
H         1.286112   -4.067683    2.612399
H         0.073462   -2.947799    1.958304
H         4.738979    1.977827    2.304736
H         4.218693    2.541179    5.226831
H         4.180741    3.818489    3.979345
H         5.729162    3.038296    4.400577
