89
-1 1
O         7.486248    8.089946   -2.274893
C         7.377342    9.068300   -1.516492
N         7.365049   10.354827   -2.054038
C         7.064239   10.693742   -3.447018
C         5.670145   10.169423   -3.826122
C         7.156384   12.227695   -3.503037
C         6.024843   13.038366   -3.589612
C         6.110842   14.435889   -3.535945
C         4.858555   15.235360   -3.453906
C         4.430116   16.080976   -4.478506
C         3.228102   16.794946   -4.383431
C         2.399827   16.701118   -3.260914
C         1.098231   17.406296   -3.106508
N         0.581194   18.006301   -4.218320
O         0.506485   17.455473   -2.035916
C         4.068025   15.145400   -2.293876
C         2.854938   15.881701   -2.211504
N         2.303598   15.640037   -0.987974
H         1.454893   16.102383   -0.684767
C         3.129494   14.795009   -0.276399
C         4.221648   14.462226   -1.034643
C         5.323818   13.600403   -0.496856
C         5.230510   13.522707    1.026356
C         3.808512   13.188014    1.502811
C         2.857636   14.335882    1.118844
C         3.759184   12.856059    3.021112
C         4.505594   11.549646    3.312631
O         4.332092   13.918238    3.771682
C         2.320744   12.738170    3.522128
C         7.364791   15.039397   -3.437333
C         8.506366   14.242069   -3.350566
C         8.405795   12.854060   -3.368149
C         8.097654   10.079403   -4.409917
C         7.311825    8.957077   -0.085806
C         6.841814    9.940832    0.811294
S         8.217981   11.276769    1.879134
C         8.708665   12.417246    0.549380
C        10.058773   12.086017   -0.098422
H        10.170165   12.691601   -1.011061
N        10.155164   10.694176   -0.470489
C        10.682175   10.297300   -1.664640
C        10.649587    8.808848   -1.919605
O        11.166884   11.085550   -2.464127
C        11.195000   12.559978    0.820804
N        12.029982   11.588950    1.260521
C        13.109061   11.843814    2.172847
O        11.309091   13.737920    1.113749
H         7.225660   11.109414   -1.397886
H         4.901337   10.536747   -3.130110
H         5.688692    9.073672   -3.753816
H         5.390704   10.459376   -4.851378
H         5.032362   12.591431   -3.658039
H         5.042977   16.174746   -5.377727
H         2.954182   17.453693   -5.211591
H         0.915206   17.775635   -5.141673
H        -0.346685   18.397382   -4.128373
H         6.305464   13.997289   -0.796802
H         5.270224   12.584362   -0.928029
H         5.521681   14.500221    1.449931
H         5.959955   12.788024    1.397257
H         3.480000   12.280282    0.963858
H         3.000216   15.168145    1.831872
H         1.804795   14.021278    1.203199
H         5.566840   11.603711    3.022750
H         4.054273   10.706763    2.767421
H         4.459793   11.332648    4.390293
H         5.283684   13.897477    3.627039
H         1.753335   12.012244    2.920047
H         1.808188   13.709302    3.482925
H         2.318776   12.403002    4.569506
H         7.439529   16.128184   -3.381334
H         9.489609   14.705860   -3.241883
H         9.315015   12.257923   -3.257390
H         8.019995    8.986762   -4.367393
H         9.122280   10.357251   -4.127440
H         7.908795   10.432898   -5.436081
H         7.518521    7.952222    0.289749
H         6.420650    9.569044    1.751013
H         6.232193   10.757876    0.401495
H         8.770381   13.441459    0.943070
H         7.931502   12.428506   -0.230190
H         9.537230   10.045276    0.025014
H         9.659676    8.508260   -2.301189
H        11.413254    8.568970   -2.669505
H        10.828469    8.234959   -0.999002
H        11.794043   10.643063    0.989122
H        14.071772   11.488036    1.770697
H        12.938277   11.364323    3.150964
H        13.166174   12.930146    2.322064
