89
-1 1
O         1.289765   -4.714916   -1.220429
C         1.143535   -3.734479   -0.458706
N         1.030956   -2.448566   -1.033866
C         0.644093   -2.171115   -2.416460
C        -0.752910   -2.741085   -2.709811
C         0.700739   -0.637899   -2.519225
C        -0.444762    0.148472   -2.628471
C        -0.384555    1.548780   -2.601833
C        -1.649569    2.326904   -2.519510
C        -2.104682    3.149398   -3.551242
C        -3.314710    3.848777   -3.450145
C        -4.124410    3.762904   -2.313760
C        -5.432511    4.453746   -2.150704
N        -5.973652    5.029481   -3.263765
O        -6.008909    4.512450   -1.072127
C        -2.421832    2.244185   -1.346360
C        -3.642768    2.966385   -1.258434
N        -4.173998    2.738206   -0.023566
H        -5.024507    3.194787    0.283520
C        -3.328486    1.914591    0.689224
C        -2.242126    1.582690   -0.078014
C        -1.128567    0.733270    0.458920
C        -1.202026    0.679054    1.984697
C        -2.615216    0.340771    2.485415
C        -3.580243    1.473712    2.093822
C        -2.647499    0.035857    4.009857
C        -1.880243   -1.253824    4.320930
O        -2.085924    1.120158    4.737110
C        -4.080170   -0.094810    4.524095
C         0.857084    2.178248   -2.517697
C         2.013935    1.404328   -2.412210
C         1.938215    0.015517   -2.392830
C         1.643163   -2.783148   -3.415238
C         1.193562   -3.793633    0.955708
C         0.641628   -2.782937    1.871227
S         1.788563   -1.579497    2.830189
C         2.414207   -0.482266    1.517721
C         3.790388   -0.860982    0.970459
H         4.032372   -0.172065    0.144456
N         3.854083   -2.204342    0.446619
C         4.402947   -2.443680   -0.784100
C         4.386706   -3.890585   -1.217903
O         4.910972   -1.561716   -1.462435
C         4.852197   -0.571862    2.045264
N         5.652302   -1.617304    2.355768
C         6.672989   -1.547244    3.362920
O         4.944517    0.532622    2.555350
H         0.725610   -1.727423   -0.394960
H        -1.497979   -2.362385   -1.993352
H        -0.698717   -3.831930   -2.591070
H        -1.091176   -2.504659   -3.731526
H        -1.428390   -0.319443   -2.687667
H        -1.505767    3.236798   -4.460404
H        -3.609924    4.489928   -4.284800
H        -5.649995    4.788806   -4.188254
H        -6.905072    5.410163   -3.166179
H        -0.150659    1.124915    0.139747
H        -1.188006   -0.289965    0.046198
H        -0.912307    1.665168    2.389316
H        -0.462506   -0.045163    2.355451
H        -2.941789   -0.578969    1.966171
H        -3.438630    2.317632    2.793176
H        -4.628914    1.150168    2.193865
H        -0.822025   -1.188798    4.024266
H        -2.320441   -2.113391    3.793143
H        -1.916515   -1.452171    5.402442
H        -1.136915    1.119959    4.576346
H        -4.640610   -0.840503    3.940024
H        -4.607924    0.867348    4.470783
H        -4.069219   -0.410230    5.577503
H         0.910636    3.269303   -2.484508
H         2.988598    1.888406   -2.314963
H         2.856608   -0.561139   -2.258805
H         1.616245   -3.874708   -3.322406
H         2.669097   -2.451812   -3.203818
H         1.381384   -2.475538   -4.440412
H         1.345289   -4.800705    1.352000
H         0.129729   -3.242364    2.731771
H        -0.091265   -2.101155    1.402984
H         2.490935    0.527299    1.943293
H         1.685693   -0.440174    0.696982
H         3.143007   -2.884819    0.776268
H         3.355477   -4.269711   -1.328049
H         4.919007   -3.972859   -2.173109
H         4.886157   -4.516756   -0.462746
H         5.427835   -2.491957    1.896520
H         7.659632   -1.828697    2.959885
H         6.445176   -2.201873    4.220394
H         6.717456   -0.509130    3.718151
