89
-1 1
O         0.142292   -5.030208   -1.727469
C         0.301102   -4.088368   -0.963235
N         0.540191   -2.810926   -1.367204
C         0.647313   -2.381219   -2.775474
C        -0.608119   -2.816374   -3.548281
C         0.770476   -0.847743   -2.732477
C        -0.360256   -0.030537   -2.832860
C        -0.279523    1.358423   -2.703337
C        -1.519277    2.177629   -2.588341
C        -1.936200    3.075455   -3.571844
C        -3.070289    3.879891   -3.392934
C        -3.823544    3.844606   -2.215305
C        -5.029942    4.677807   -1.957462
N        -5.573094    5.329333   -3.027089
O        -5.522881    4.783294   -0.842253
C        -2.260958    2.108373   -1.394703
C        -3.378200    2.967946   -1.209097
N        -3.841900    2.778326    0.059340
H        -4.600056    3.332828    0.438444
C        -3.056463    1.838736    0.696968
C        -2.090766    1.383587   -0.163760
C        -1.083051    0.357872    0.251169
C        -1.017051    0.296229    1.770249
C        -2.386685    0.183886    2.441518
C        -3.207991    1.449982    2.134574
C        -2.213794   -0.109511    3.966541
C        -1.807171   -1.574643    4.172457
O        -1.232777    0.738996    4.526963
C        -3.501661    0.169802    4.740695
C         0.972036    1.952105   -2.514721
C         2.106626    1.152443   -2.407418
C         2.008857   -0.235593   -2.498470
C         1.880322   -3.024998   -3.433837
C         0.226363   -4.315801    0.514290
C        -0.025448   -3.397388    1.447058
S         1.962142   -0.778003    3.392358
C         2.362357    0.219163    1.904224
C         3.418756   -0.400392    0.963625
H         3.390888    0.106950   -0.009802
N         3.125462   -1.807999    0.781705
C         3.711748   -2.575594   -0.165147
C         3.545390   -4.073116   -0.003430
O         4.335485   -2.114073   -1.112367
C         4.839372   -0.150581    1.495758
N         5.133735   -0.832224    2.635250
C         6.352879   -0.586221    3.357986
O         5.605589    0.617866    0.941068
H         0.891839   -2.160566   -0.671076
H        -1.527211   -2.523480   -3.021995
H        -0.620169   -3.907447   -3.647775
H        -0.610637   -2.355675   -4.547287
H        -1.349046   -0.471408   -2.960742
H        -1.359300    3.155874   -4.495835
H        -3.337153    4.578033   -4.190579
H        -5.338819    5.069218   -3.973021
H        -6.444290    5.815667   -2.864464
H        -0.089046    0.602140   -0.151241
H        -1.339403   -0.631279   -0.171514
H        -0.535433    1.216012    2.139780
H        -0.357845   -0.519152    2.096593
H        -2.924463   -0.675246    1.998905
H        -2.845154    2.274760    2.774993
H        -4.273485    1.304185    2.376563
H        -0.826313   -1.773739    3.715766
H        -2.551265   -2.264897    3.745118
H        -1.713604   -1.780709    5.249272
H        -0.349458    0.414547    4.275461
H        -4.350580   -0.386749    4.313333
H        -3.741470    1.242373    4.731665
H        -3.374369   -0.133022    5.790211
H         1.042743    3.036061   -2.397199
H         3.082178    1.606696   -2.218908
H         2.911876   -0.832185   -2.348073
H         1.741328   -4.114428   -3.461570
H         2.802825   -2.809023   -2.877458
H         1.997024   -2.653820   -4.463497
H         0.352253   -5.369005    0.780567
H        -0.075674   -3.658574    2.505744
H        -0.183911   -2.342895    1.210549
H         2.717852    1.220858    2.191402
H         1.454561    0.372373    1.303839
H         2.674049   -2.227451    1.601246
H         3.017424   -4.478306   -0.878660
H         4.549634   -4.519959    0.010183
H         3.005873   -4.356993    0.908859
H         4.316669   -1.175977    3.154755
H         6.739113   -1.518579    3.798521
H         6.215440    0.149484    4.170178
H         7.096194   -0.183960    2.657255
