-1 1
 OpenBabel05232413493D

 89 91  0  0  1  0  0  0  0  0999 V2000
    0.1423   -5.0302   -1.7275 O   0  0  0  0  0  0  0  0  0  0  0  0
    0.3011   -4.0884   -0.9632 C   0  0  0  0  0  0  0  0  0  0  0  0
    0.5402   -2.8109   -1.3672 N   0  0  0  0  0  0  0  0  0  0  0  0
    0.6473   -2.3812   -2.7755 C   0  0  0  0  0  0  0  0  0  0  0  0
   -0.6081   -2.8164   -3.5483 C   0  0  0  0  0  0  0  0  0  0  0  0
    0.7705   -0.8477   -2.7325 C   0  0  0  0  0  0  0  0  0  0  0  0
   -0.3603   -0.0305   -2.8329 C   0  0  0  0  0  0  0  0  0  0  0  0
   -0.2795    1.3584   -2.7033 C   0  0  0  0  0  0  0  0  0  0  0  0
   -1.5193    2.1776   -2.5883 C   0  0  0  0  0  0  0  0  0  0  0  0
   -1.9362    3.0755   -3.5718 C   0  0  0  0  0  0  0  0  0  0  0  0
   -3.0703    3.8799   -3.3929 C   0  0  0  0  0  0  0  0  0  0  0  0
   -3.8235    3.8446   -2.2153 C   0  0  0  0  0  0  0  0  0  0  0  0
   -5.0299    4.6778   -1.9575 C   0  0  0  0  0  0  0  0  0  0  0  0
   -5.5731    5.3293   -3.0271 N   0  0  0  0  0  0  0  0  0  0  0  0
   -5.5229    4.7833   -0.8423 O   0  0  0  0  0  0  0  0  0  0  0  0
   -2.2610    2.1084   -1.3947 C   0  0  0  0  0  0  0  0  0  0  0  0
   -3.3782    2.9679   -1.2091 C   0  0  0  0  0  0  0  0  0  0  0  0
   -3.8419    2.7783    0.0593 N   0  0  0  0  0  0  0  0  0  0  0  0
   -4.6001    3.3328    0.4384 H   0  0  0  0  0  0  0  0  0  0  0  0
   -3.0565    1.8387    0.6970 C   0  0  0  0  0  0  0  0  0  0  0  0
   -2.0908    1.3836   -0.1638 C   0  0  0  0  0  0  0  0  0  0  0  0
   -1.0831    0.3579    0.2512 C   0  0  0  0  0  0  0  0  0  0  0  0
   -1.0171    0.2962    1.7702 C   0  0  0  0  0  0  0  0  0  0  0  0
   -2.3867    0.1839    2.4415 C   0  0  2  0  0  0  0  0  0  0  0  0
   -3.2080    1.4500    2.1346 C   0  0  0  0  0  0  0  0  0  0  0  0
   -2.2138   -0.1095    3.9665 C   0  0  0  0  0  0  0  0  0  0  0  0
   -1.8072   -1.5746    4.1725 C   0  0  0  0  0  0  0  0  0  0  0  0
   -1.2328    0.7390    4.5270 O   0  0  0  0  0  0  0  0  0  0  0  0
   -3.5017    0.1698    4.7407 C   0  0  0  0  0  0  0  0  0  0  0  0
    0.9720    1.9521   -2.5147 C   0  0  0  0  0  0  0  0  0  0  0  0
    2.1066    1.1524   -2.4074 C   0  0  0  0  0  0  0  0  0  0  0  0
    2.0089   -0.2356   -2.4985 C   0  0  0  0  0  0  0  0  0  0  0  0
    1.8803   -3.0250   -3.4338 C   0  0  0  0  0  0  0  0  0  0  0  0
    0.2264   -4.3158    0.5143 C   0  0  0  0  0  0  0  0  0  0  0  0
   -0.0254   -3.3974    1.4471 C   0  0  0  0  0  0  0  0  0  0  0  0
    1.9621   -0.7780    3.3924 S   0  0  0  0  0  1  0  0  0  0  0  0
    2.3624    0.2192    1.9042 C   0  0  0  0  0  0  0  0  0  0  0  0
    3.4188   -0.4004    0.9636 C   0  0  2  0  0  0  0  0  0  0  0  0
    3.3909    0.1070   -0.0098 H   0  0  0  0  0  0  0  0  0  0  0  0
    3.1255   -1.8080    0.7817 N   0  0  0  0  0  0  0  0  0  0  0  0
    3.7117   -2.5756   -0.1651 C   0  0  0  0  0  0  0  0  0  0  0  0
    3.5454   -4.0731   -0.0034 C   0  0  0  0  0  0  0  0  0  0  0  0
    4.3355   -2.1141   -1.1124 O   0  0  0  0  0  0  0  0  0  0  0  0
    4.8394   -0.1506    1.4958 C   0  0  0  0  0  0  0  0  0  0  0  0
    5.1337   -0.8322    2.6353 N   0  0  0  0  0  0  0  0  0  0  0  0
    6.3529   -0.5862    3.3580 C   0  0  0  0  0  0  0  0  0  0  0  0
    5.6056    0.6179    0.9411 O   0  0  0  0  0  0  0  0  0  0  0  0
    0.8918   -2.1606   -0.6711 H   0  0  0  0  0  0  0  0  0  0  0  0
   -1.5272   -2.5235   -3.0220 H   0  0  0  0  0  0  0  0  0  0  0  0
   -0.6202   -3.9074   -3.6478 H   0  0  0  0  0  0  0  0  0  0  0  0
   -0.6106   -2.3557   -4.5473 H   0  0  0  0  0  0  0  0  0  0  0  0
   -1.3490   -0.4714   -2.9607 H   0  0  0  0  0  0  0  0  0  0  0  0
   -1.3593    3.1559   -4.4958 H   0  0  0  0  0  0  0  0  0  0  0  0
   -3.3372    4.5780   -4.1906 H   0  0  0  0  0  0  0  0  0  0  0  0
   -5.3388    5.0692   -3.9730 H   0  0  0  0  0  0  0  0  0  0  0  0
   -6.4443    5.8157   -2.8645 H   0  0  0  0  0  0  0  0  0  0  0  0
   -0.0890    0.6021   -0.1512 H   0  0  0  0  0  0  0  0  0  0  0  0
   -1.3394   -0.6313   -0.1715 H   0  0  0  0  0  0  0  0  0  0  0  0
   -0.5354    1.2160    2.1398 H   0  0  0  0  0  0  0  0  0  0  0  0
   -0.3578   -0.5192    2.0966 H   0  0  0  0  0  0  0  0  0  0  0  0
   -2.9245   -0.6752    1.9989 H   0  0  0  0  0  0  0  0  0  0  0  0
   -2.8452    2.2748    2.7750 H   0  0  0  0  0  0  0  0  0  0  0  0
   -4.2735    1.3042    2.3766 H   0  0  0  0  0  0  0  0  0  0  0  0
   -0.8263   -1.7737    3.7158 H   0  0  0  0  0  0  0  0  0  0  0  0
   -2.5513   -2.2649    3.7451 H   0  0  0  0  0  0  0  0  0  0  0  0
   -1.7136   -1.7807    5.2493 H   0  0  0  0  0  0  0  0  0  0  0  0
   -0.3495    0.4145    4.2755 H   0  0  0  0  0  0  0  0  0  0  0  0
   -4.3506   -0.3867    4.3133 H   0  0  0  0  0  0  0  0  0  0  0  0
   -3.7415    1.2424    4.7317 H   0  0  0  0  0  0  0  0  0  0  0  0
   -3.3744   -0.1330    5.7902 H   0  0  0  0  0  0  0  0  0  0  0  0
    1.0427    3.0361   -2.3972 H   0  0  0  0  0  0  0  0  0  0  0  0
    3.0822    1.6067   -2.2189 H   0  0  0  0  0  0  0  0  0  0  0  0
    2.9119   -0.8322   -2.3481 H   0  0  0  0  0  0  0  0  0  0  0  0
    1.7413   -4.1144   -3.4616 H   0  0  0  0  0  0  0  0  0  0  0  0
    2.8028   -2.8090   -2.8775 H   0  0  0  0  0  0  0  0  0  0  0  0
    1.9970   -2.6538   -4.4635 H   0  0  0  0  0  0  0  0  0  0  0  0
    0.3523   -5.3690    0.7806 H   0  0  0  0  0  0  0  0  0  0  0  0
   -0.0757   -3.6586    2.5057 H   0  0  0  0  0  0  0  0  0  0  0  0
   -0.1839   -2.3429    1.2105 H   0  0  0  0  0  0  0  0  0  0  0  0
    2.7179    1.2209    2.1914 H   0  0  0  0  0  0  0  0  0  0  0  0
    1.4546    0.3724    1.3038 H   0  0  0  0  0  0  0  0  0  0  0  0
    2.6740   -2.2275    1.6012 H   0  0  0  0  0  0  0  0  0  0  0  0
    3.0174   -4.4783   -0.8787 H   0  0  0  0  0  0  0  0  0  0  0  0
    4.5496   -4.5200    0.0102 H   0  0  0  0  0  0  0  0  0  0  0  0
    3.0059   -4.3570    0.9089 H   0  0  0  0  0  0  0  0  0  0  0  0
    4.3167   -1.1760    3.1548 H   0  0  0  0  0  0  0  0  0  0  0  0
    6.7391   -1.5186    3.7985 H   0  0  0  0  0  0  0  0  0  0  0  0
    6.2154    0.1495    4.1702 H   0  0  0  0  0  0  0  0  0  0  0  0
    7.0962   -0.1840    2.6573 H   0  0  0  0  0  0  0  0  0  0  0  0
  1  2  2  0  0  0  0
  2 34  1  0  0  0  0
  3  2  1  0  0  0  0
  3 48  1  0  0  0  0
  4  6  1  0  0  0  0
  4  3  1  0  0  0  0
  5 49  1  0  0  0  0
  5  4  1  0  0  0  0
  6 32  1  0  0  0  0
  7  6  2  0  0  0  0
  7  8  1  0  0  0  0
  8  9  1  0  0  0  0
  8 30  2  0  0  0  0
  9 16  1  0  0  0  0
 10 11  1  0  0  0  0
 10  9  2  0  0  0  0
 11 12  2  0  0  0  0
 12 13  1  0  0  0  0
 12 17  1  0  0  0  0
 13 15  2  0  0  0  0
 14 56  1  0  0  0  0
 14 13  1  0  0  0  0
 16 17  2  0  0  0  0
 16 21  1  0  0  0  0
 17 18  1  0  0  0  0
 18 19  1  0  0  0  0
 18 20  1  0  0  0  0
 20 25  1  0  0  0  0
 21 22  1  0  0  0  0
 21 20  2  0  0  0  0
 22 23  1  0  0  0  0
 23 60  1  0  0  0  0
 23 59  1  0  0  0  0
 23 24  1  0  0  0  0
 24 61  1  6  0  0  0
 24 26  1  0  0  0  0
 25 63  1  0  0  0  0
 25 24  1  0  0  0  0
 25 62  1  0  0  0  0
 26 27  1  0  0  0  0
 26 28  1  0  0  0  0
 26 29  1  0  0  0  0
 27 66  1  0  0  0  0
 29 70  1  0  0  0  0
 30 31  1  0  0  0  0
 30 71  1  0  0  0  0
 31 72  1  0  0  0  0
 32 31  2  0  0  0  0
 32 73  1  0  0  0  0
 33 75  1  0  0  0  0
 33  4  1  0  0  0  0
 34 77  1  0  0  0  0
 34 35  2  0  0  0  0
 35 78  1  0  0  0  0
 37 80  1  0  0  0  0
 37 36  1  0  0  0  0
 38 39  1  6  0  0  0
 38 44  1  0  0  0  0
 38 37  1  0  0  0  0
 40 38  1  0  0  0  0
 40 82  1  0  0  0  0
 41 42  1  0  0  0  0
 41 40  1  0  0  0  0
 42 84  1  0  0  0  0
 42 85  1  0  0  0  0
 43 41  2  0  0  0  0
 44 45  1  0  0  0  0
 45 86  1  0  0  0  0
 45 46  1  0  0  0  0
 46 87  1  0  0  0  0
 46 88  1  0  0  0  0
 47 44  2  0  0  0  0
 50  5  1  0  0  0  0
 51  5  1  0  0  0  0
 52  7  1  0  0  0  0
 53 10  1  0  0  0  0
 54 11  1  0  0  0  0
 55 14  1  0  0  0  0
 57 22  1  0  0  0  0
 58 22  1  0  0  0  0
 64 27  1  0  0  0  0
 65 27  1  0  0  0  0
 67 28  1  0  0  0  0
 68 29  1  0  0  0  0
 69 29  1  0  0  0  0
 74 33  1  0  0  0  0
 76 33  1  0  0  0  0
 79 35  1  0  0  0  0
 81 37  1  0  0  0  0
 83 42  1  0  0  0  0
 89 46  1  0  0  0  0
M  END
