-1 1
 OpenBabel05232414493D

 94 96  0  0  1  0  0  0  0  0999 V2000
   -0.5105    2.7571   -6.8374 C   0  0  0  0  0  0  0  0  0  0  0  0
    0.7055    2.7043   -7.7207 C   0  0  0  0  0  0  0  0  0  0  0  0
    1.7672    3.6148   -7.5523 C   0  0  0  0  0  0  0  0  0  0  0  0
    1.7756    4.5172   -6.3674 C   0  0  0  0  0  0  0  0  0  0  0  0
    1.5635    5.8914   -6.4851 C   0  0  0  0  0  0  0  0  0  0  0  0
    1.5011    6.7215   -5.3596 C   0  0  0  0  0  0  0  0  0  0  0  0
    1.6569    6.2184   -4.0685 C   0  0  0  0  0  0  0  0  0  0  0  0
    1.6105    7.1663   -2.9178 C   0  0  0  0  0  0  0  0  0  0  0  0
    2.2441    6.7275   -1.7675 N   0  0  0  0  0  0  0  0  0  0  0  0
    1.0633    8.2490   -2.9598 O   0  0  0  0  0  0  0  0  0  0  0  0
    1.9472    3.9800   -5.0778 C   0  0  0  0  0  0  0  0  0  0  0  0
    1.8584    4.8302   -3.9455 C   0  0  0  0  0  0  0  0  0  0  0  0
    2.0011    4.0416   -2.8268 N   0  0  0  0  0  0  0  0  0  0  0  0
    1.7491    4.3424   -1.8954 H   0  0  0  0  0  0  0  0  0  0  0  0
    2.1619    2.7229   -3.2243 C   0  0  0  0  0  0  0  0  0  0  0  0
    2.1751    2.6392   -4.5875 C   0  0  0  0  0  0  0  0  0  0  0  0
    2.4483    1.3498   -5.3050 C   0  0  0  0  0  0  0  0  0  0  0  0
    3.0444    0.3306   -4.3299 C   0  0  0  0  0  0  0  0  0  0  0  0
    2.2345    0.2517   -3.0282 C   0  0  2  0  0  0  0  0  0  0  0  0
    2.3079    1.5866   -2.2671 C   0  0  0  0  0  0  0  0  0  0  0  0
    2.5973   -0.9716   -2.1550 C   0  0  0  0  0  0  0  0  0  0  0  0
    1.7401   -1.0110   -0.8845 C   0  0  0  0  0  0  0  0  0  0  0  0
    2.2756   -2.0943   -2.9599 O   0  0  0  0  0  0  0  0  0  0  0  0
    4.0853   -1.0265   -1.7882 C   0  0  0  0  0  0  0  0  0  0  0  0
    2.8239    3.6695   -8.4662 C   0  0  0  0  0  0  0  0  0  0  0  0
    2.8570    2.7926   -9.5468 C   0  0  0  0  0  0  0  0  0  0  0  0
    1.8582    1.8359   -9.6834 C   0  0  0  0  0  0  0  0  0  0  0  0
    0.7914    1.7704   -8.7763 C   0  0  0  0  0  0  0  0  0  0  0  0
   -0.1966    0.7947   -8.9520 N   0  0  0  0  0  0  0  0  0  0  0  0
   -0.5321   -0.1771   -7.9849 C   0  0  0  0  0  0  0  0  0  0  0  0
   -0.0253   -0.1292   -6.8665 O   0  0  0  0  0  0  0  0  0  0  0  0
   -1.4695   -1.1652   -8.4448 C   0  0  0  0  0  3  0  0  0  0  0  0
   -1.9921   -2.0964   -7.5630 C   0  0  0  0  0  3  0  0  0  0  0  0
   -3.8528   -1.0772   -6.3757 S   0  0  0  0  0  1  0  0  0  0  0  0
   -4.4919   -0.3092   -7.8820 C   0  0  0  0  0  0  0  0  0  0  0  0
   -5.6063   -1.0792   -8.6438 C   0  0  2  0  0  0  0  0  0  0  0  0
   -6.5631   -0.5367   -8.5564 H   0  0  0  0  0  0  0  0  0  0  0  0
   -5.8250   -2.4026   -8.0898 N   0  0  0  0  0  0  0  0  0  0  0  0
   -7.0093   -3.0278   -8.1133 C   0  0  0  0  0  0  0  0  0  0  0  0
   -7.1083   -4.2658   -7.2459 C   0  0  0  0  0  0  0  0  0  0  0  0
   -7.9727   -2.6533   -8.7880 O   0  0  0  0  0  0  0  0  0  0  0  0
   -5.3150   -1.2027  -10.1588 C   0  0  0  0  0  0  0  0  0  0  0  0
   -6.4115   -1.5637  -10.8751 N   0  0  0  0  0  0  0  0  0  0  0  0
   -6.3412   -1.8720  -12.2773 C   0  0  0  0  0  0  0  0  0  0  0  0
   -4.2211   -1.0084  -10.6627 O   0  0  0  0  0  0  0  0  0  0  0  0
   -2.6136   -3.3318   -8.1700 C   0  0  0  0  0  0  0  0  0  0  0  0
   -3.4639   -4.1756   -7.3434 N   0  0  0  0  0  0  0  0  0  0  0  0
   -3.8939   -5.3313   -8.0883 C   0  0  0  0  0  0  0  0  0  0  0  0
   -2.8884   -4.5155   -6.0653 C   0  0  0  0  0  0  0  0  0  0  0  0
   -0.6948    3.7808   -6.4834 H   0  0  0  0  0  0  0  0  0  0  0  0
   -0.4093    2.0933   -5.9674 H   0  0  0  0  0  0  0  0  0  0  0  0
   -1.3917    2.4009   -7.3889 H   0  0  0  0  0  0  0  0  0  0  0  0
    1.4152    6.3174   -7.4799 H   0  0  0  0  0  0  0  0  0  0  0  0
    1.3219    7.7930   -5.4688 H   0  0  0  0  0  0  0  0  0  0  0  0
    3.0277    6.0931   -1.8741 H   0  0  0  0  0  0  0  0  0  0  0  0
    2.3478    7.4410   -1.0552 H   0  0  0  0  0  0  0  0  0  0  0  0
    3.1432    1.5242   -6.1415 H   0  0  0  0  0  0  0  0  0  0  0  0
    1.5345    0.9355   -5.7642 H   0  0  0  0  0  0  0  0  0  0  0  0
    4.0873    0.6134   -4.0946 H   0  0  0  0  0  0  0  0  0  0  0  0
    3.0646   -0.6633   -4.7965 H   0  0  0  0  0  0  0  0  0  0  0  0
    1.1827    0.0903   -3.3224 H   0  0  0  0  0  0  0  0  0  0  0  0
    3.2680    1.6751   -1.7243 H   0  0  0  0  0  0  0  0  0  0  0  0
    1.5127    1.6421   -1.5043 H   0  0  0  0  0  0  0  0  0  0  0  0
    0.6734   -0.9356   -1.1424 H   0  0  0  0  0  0  0  0  0  0  0  0
    1.9946   -0.2012   -0.1845 H   0  0  0  0  0  0  0  0  0  0  0  0
    1.8971   -1.9645   -0.3529 H   0  0  0  0  0  0  0  0  0  0  0  0
    2.4823   -2.8900   -2.4622 H   0  0  0  0  0  0  0  0  0  0  0  0
    4.4060   -0.1415   -1.2182 H   0  0  0  0  0  0  0  0  0  0  0  0
    4.7032   -1.1034   -2.6932 H   0  0  0  0  0  0  0  0  0  0  0  0
    4.2873   -1.9115   -1.1614 H   0  0  0  0  0  0  0  0  0  0  0  0
    3.6252    4.3965   -8.3131 H   0  0  0  0  0  0  0  0  0  0  0  0
    3.6795    2.8322  -10.2651 H   0  0  0  0  0  0  0  0  0  0  0  0
    1.9007    1.1051  -10.4953 H   0  0  0  0  0  0  0  0  0  0  0  0
   -0.4227    0.5476   -9.9065 H   0  0  0  0  0  0  0  0  0  0  0  0
   -1.8710   -1.0949   -9.4601 H   0  0  0  0  0  0  0  0  0  0  0  0
   -1.4537   -2.2061   -6.6193 H   0  0  0  0  0  0  0  0  0  0  0  0
   -3.6349   -0.1685   -8.5644 H   0  0  0  0  0  0  0  0  0  0  0  0
   -4.8713    0.6941   -7.6435 H   0  0  0  0  0  0  0  0  0  0  0  0
   -5.0936   -2.7139   -7.4292 H   0  0  0  0  0  0  0  0  0  0  0  0
   -8.0174   -4.1844   -6.6343 H   0  0  0  0  0  0  0  0  0  0  0  0
   -6.2319   -4.3934   -6.5975 H   0  0  0  0  0  0  0  0  0  0  0  0
   -7.2204   -5.1492   -7.8919 H   0  0  0  0  0  0  0  0  0  0  0  0
   -7.2319   -1.8444  -10.3290 H   0  0  0  0  0  0  0  0  0  0  0  0
   -6.4337   -2.9556  -12.4683 H   0  0  0  0  0  0  0  0  0  0  0  0
   -5.3653   -1.5369  -12.6522 H   0  0  0  0  0  0  0  0  0  0  0  0
   -7.1366   -1.3563  -12.8392 H   0  0  0  0  0  0  0  0  0  0  0  0
   -1.7570   -3.9389   -8.5541 H   0  0  0  0  0  0  0  0  0  0  0  0
   -3.1923   -3.0283   -9.0591 H   0  0  0  0  0  0  0  0  0  0  0  0
   -4.4457   -5.0103   -8.9866 H   0  0  0  0  0  0  0  0  0  0  0  0
   -4.5700   -5.9511   -7.4788 H   0  0  0  0  0  0  0  0  0  0  0  0
   -3.0488   -5.9787   -8.4221 H   0  0  0  0  0  0  0  0  0  0  0  0
   -2.7257   -3.6042   -5.4745 H   0  0  0  0  0  0  0  0  0  0  0  0
   -1.9199   -5.0603   -6.1554 H   0  0  0  0  0  0  0  0  0  0  0  0
   -3.5869   -5.1562   -5.5041 H   0  0  0  0  0  0  0  0  0  0  0  0
  1 50  1  0  0  0  0
  1 51  1  0  0  0  0
  2  3  1  0  0  0  0
  2  1  1  0  0  0  0
  3  4  1  0  0  0  0
  4 11  1  0  0  0  0
  5  4  2  0  0  0  0
  5  6  1  0  0  0  0
  6  7  2  0  0  0  0
  7 12  1  0  0  0  0
  7  8  1  0  0  0  0
  8  9  1  0  0  0  0
  9 56  1  0  0  0  0
 10  8  2  0  0  0  0
 11 16  1  0  0  0  0
 11 12  2  0  0  0  0
 12 13  1  0  0  0  0
 13 14  1  0  0  0  0
 15 13  1  0  0  0  0
 15 20  1  0  0  0  0
 16 15  2  0  0  0  0
 17 16  1  0  0  0  0
 17 18  1  0  0  0  0
 18 59  1  0  0  0  0
 18 19  1  0  0  0  0
 19 61  1  6  0  0  0
 19 20  1  0  0  0  0
 19 21  1  0  0  0  0
 20 62  1  0  0  0  0
 20 63  1  0  0  0  0
 21 24  1  0  0  0  0
 21 22  1  0  0  0  0
 22 66  1  0  0  0  0
 22 65  1  0  0  0  0
 23 67  1  0  0  0  0
 23 21  1  0  0  0  0
 24 68  1  0  0  0  0
 24 70  1  0  0  0  0
 25 71  1  0  0  0  0
 25  3  2  0  0  0  0
 26 25  1  0  0  0  0
 27 26  2  0  0  0  0
 27 28  1  0  0  0  0
 28  2  2  0  0  0  0
 29 28  1  0  0  0  0
 29 30  1  0  0  0  0
 30 31  2  0  0  0  0
 32 30  1  0  0  0  0
 32 33  1  0  0  0  0
 33 76  1  0  0  0  0
 35 78  1  0  0  0  0
 35 34  1  0  0  0  0
 36 37  1  1  0  0  0
 36 38  1  0  0  0  0
 36 35  1  0  0  0  0
 38 79  1  0  0  0  0
 39 38  1  0  0  0  0
 39 40  1  0  0  0  0
 40 80  1  0  0  0  0
 40 81  1  0  0  0  0
 41 39  2  0  0  0  0
 42 36  1  0  0  0  0
 43 83  1  0  0  0  0
 43 42  1  0  0  0  0
 44 43  1  0  0  0  0
 45 42  2  0  0  0  0
 46 33  1  0  0  0  0
 46 47  1  0  0  0  0
 47 49  1  0  0  0  0
 48 90  1  0  0  0  0
 48 47  1  0  0  0  0
 49 94  1  0  0  0  0
 49 92  1  0  0  0  0
 52  1  1  0  0  0  0
 53  5  1  0  0  0  0
 54  6  1  0  0  0  0
 55  9  1  0  0  0  0
 57 17  1  0  0  0  0
 58 17  1  0  0  0  0
 60 18  1  0  0  0  0
 64 22  1  0  0  0  0
 69 24  1  0  0  0  0
 72 26  1  0  0  0  0
 73 27  1  0  0  0  0
 74 29  1  0  0  0  0
 75 32  1  0  0  0  0
 77 35  1  0  0  0  0
 82 40  1  0  0  0  0
 84 44  1  0  0  0  0
 85 44  1  0  0  0  0
 86 44  1  0  0  0  0
 87 46  1  0  0  0  0
 88 46  1  0  0  0  0
 89 48  1  0  0  0  0
 91 48  1  0  0  0  0
 93 49  1  0  0  0  0
M  END
