94
-1 1
C        -0.384693    1.222828    0.106926
C         0.578583    1.445803   -1.026711
C         1.449647    2.554535   -1.034739
C         1.554376    3.422080    0.171770
C         1.039964    4.718091    0.197487
C         1.104419    5.508016    1.351786
C         1.696049    5.043808    2.525511
C         1.764495    5.954065    3.705572
N         2.760386    5.656282    4.622013
O         1.014944    6.892623    3.875324
C         2.157133    2.922832    1.341940
C         2.200799    3.729389    2.507545
N         2.792596    2.984438    3.502140
H         2.748498    3.225838    4.482543
C         3.105242    1.731791    2.999646
C         2.770181    1.656977    1.677352
C         3.090331    0.452705    0.840536
C         4.111848   -0.427534    1.566486
C         3.717878   -0.670479    3.030330
C         3.731630    0.650853    3.817007
C         4.536132   -1.795255    3.705240
C         4.104238   -1.989886    5.163473
O         4.208816   -2.965220    2.971589
C         6.049521   -1.561029    3.632690
C         2.250781    2.832276   -2.145451
C         2.227193    1.995643   -3.257917
C         1.429163    0.858344   -3.237770
C         0.623852    0.572304   -2.130871
N        -0.164939   -0.596520   -2.170416
C        -0.131055   -1.571038   -1.219365
O         0.641010   -1.569570   -0.271707
C        -1.132014   -2.659482   -1.435298
C        -1.369024   -3.543187   -0.466125
S        -4.463459   -0.375041   -0.403561
C        -3.674071   -0.118464   -2.028681
C        -4.197172   -1.054224   -3.136722
H        -5.147807   -0.653245   -3.532275
N        -4.464824   -2.372179   -2.580287
C        -5.380229   -3.204227   -3.116888
C        -5.860460   -4.305910   -2.202177
O        -5.821932   -3.090016   -4.262629
C        -3.224751   -1.173776   -4.327268
N        -3.801835   -1.622218   -5.460744
C        -3.036578   -1.930449   -6.639460
O        -2.028267   -0.891583   -4.269357
C        -2.317267   -4.699426   -0.560161
N        -3.520303   -4.579723    0.256011
C        -4.080009   -5.867331    0.566079
C        -3.455505   -3.682689    1.390079
H        -0.646533    2.171922    0.592091
H         0.043952    0.552512    0.866645
H        -1.315160    0.750238   -0.241082
H         0.553791    5.109571   -0.698654
H         0.685329    6.516136    1.358160
H         3.604615    5.218339    4.270431
H         2.899183    6.374111    5.324171
H         3.490225    0.765885   -0.136415
H         2.186639   -0.135487    0.609256
H         5.102507    0.061947    1.532805
H         4.200895   -1.395686    1.055572
H         2.678398   -1.042563    3.020681
H         4.767076    0.934759    4.084499
H         3.183650    0.541682    4.768180
H         3.013183   -2.116932    5.224577
H         4.399065   -1.143971    5.802057
H         4.577365   -2.895212    5.578617
H         4.729308   -3.693688    3.321168
H         6.346872   -0.620342    4.119904
H         6.387620   -1.535877    2.587887
H         6.584123   -2.378837    4.144812
H         2.905241    3.707164   -2.122424
H         2.849116    2.215920   -4.128626
H         1.418327    0.164061   -4.080551
H        -0.825824   -0.698437   -2.954710
H        -1.688443   -2.680788   -2.376512
H        -0.802096   -3.423197    0.463265
H        -2.592129   -0.267402   -1.938067
H        -3.812735    0.913908   -2.386344
H        -4.400751   -2.330669   -1.543948
H        -6.882492   -4.055195   -1.879912
H        -5.219453   -4.402476   -1.314302
H        -5.906939   -5.248703   -2.764502
H        -4.724767   -2.054044   -5.325541
H        -2.780663   -3.002977   -6.698906
H        -2.100976   -1.357552   -6.612779
H        -3.600460   -1.660026   -7.544928
H        -1.737681   -5.602290   -0.256077
H        -2.615617   -4.856896   -1.612883
H        -4.220368   -6.454184   -0.357074
H        -5.067402   -5.749284    1.039290
H        -3.440866   -6.472334    1.252732
H        -3.214102   -2.661990    1.054899
H        -2.730443   -4.006675    2.171184
H        -4.451444   -3.629816    1.854570
