94
-1 1
C        -0.510533    2.757093   -6.837446
C         0.705490    2.704305   -7.720730
C         1.767232    3.614784   -7.552342
C         1.775577    4.517236   -6.367447
C         1.563509    5.891380   -6.485147
C         1.501129    6.721479   -5.359633
C         1.656916    6.218379   -4.068502
C         1.610480    7.166344   -2.917755
N         2.244097    6.727519   -1.767495
O         1.063343    8.248956   -2.959806
C         1.947226    3.980033   -5.077760
C         1.858429    4.830153   -3.945523
N         2.001145    4.041595   -2.826791
H         1.749074    4.342377   -1.895443
C         2.161911    2.722871   -3.224280
C         2.175130    2.639203   -4.587456
C         2.448336    1.349828   -5.305037
C         3.044429    0.330601   -4.329935
C         2.234478    0.251695   -3.028160
C         2.307906    1.586636   -2.267068
C         2.597273   -0.971565   -2.155019
C         1.740088   -1.011046   -0.884454
O         2.275614   -2.094262   -2.959869
C         4.085326   -1.026526   -1.788175
C         2.823850    3.669548   -8.466233
C         2.856989    2.792595   -9.546762
C         1.858188    1.835858   -9.683353
C         0.791412    1.770435   -8.776258
N        -0.196628    0.794732   -8.952027
C        -0.532100   -0.177130   -7.984885
O        -0.025336   -0.129196   -6.866505
C        -1.469532   -1.165217   -8.444812
C        -1.992115   -2.096362   -7.563040
S        -3.852846   -1.077166   -6.375692
C        -4.491925   -0.309247   -7.882008
C        -5.606263   -1.079249   -8.643806
H        -6.563062   -0.536652   -8.556447
N        -5.824977   -2.402613   -8.089823
C        -7.009321   -3.027816   -8.113300
C        -7.108334   -4.265818   -7.245946
O        -7.972713   -2.653343   -8.787952
C        -5.314966   -1.202724  -10.158825
N        -6.411499   -1.563653  -10.875143
C        -6.341192   -1.871995  -12.277343
O        -4.221105   -1.008442  -10.662722
C        -2.613604   -3.331832   -8.170003
N        -3.463915   -4.175629   -7.343397
C        -3.893935   -5.331324   -8.088282
C        -2.888385   -4.515533   -6.065294
H        -0.694829    3.780834   -6.483384
H        -0.409328    2.093280   -5.967445
H        -1.391728    2.400910   -7.388918
H         1.415198    6.317404   -7.479946
H         1.321933    7.792983   -5.468792
H         3.027746    6.093093   -1.874051
H         2.347839    7.441035   -1.055234
H         3.143219    1.524217   -6.141491
H         1.534522    0.935503   -5.764185
H         4.087323    0.613427   -4.094630
H         3.064583   -0.663257   -4.796514
H         1.182745    0.090290   -3.322370
H         3.268011    1.675055   -1.724311
H         1.512740    1.642102   -1.504333
H         0.673378   -0.935559   -1.142391
H         1.994647   -0.201247   -0.184524
H         1.897059   -1.964538   -0.352943
H         2.482315   -2.889983   -2.462158
H         4.406021   -0.141532   -1.218241
H         4.703205   -1.103354   -2.693194
H         4.287327   -1.911475   -1.161376
H         3.625197    4.396456   -8.313053
H         3.679546    2.832196  -10.265072
H         1.900708    1.105112  -10.495278
H        -0.422702    0.547648   -9.906484
H        -1.870989   -1.094943   -9.460071
H        -1.453699   -2.206140   -6.619262
H        -3.634852   -0.168511   -8.564402
H        -4.871320    0.694116   -7.643516
H        -5.093596   -2.713945   -7.429195
H        -8.017390   -4.184407   -6.634281
H        -6.231882   -4.393430   -6.597505
H        -7.220370   -5.149161   -7.891907
H        -7.231944   -1.844433  -10.328980
H        -6.433682   -2.955594  -12.468309
H        -5.365257   -1.536869  -12.652203
H        -7.136646   -1.356290  -12.839225
H        -1.757039   -3.938912   -8.554085
H        -3.192322   -3.028307   -9.059062
H        -4.445735   -5.010289   -8.986647
H        -4.570038   -5.951111   -7.478771
H        -3.048799   -5.978739   -8.422068
H        -2.725705   -3.604170   -5.474455
H        -1.919891   -5.060279   -6.155383
H        -3.586950   -5.156233   -5.504095
