-1 1
 OpenBabel05232413493D

 66 67  0  0  1  0  0  0  0  0999 V2000
    5.5287    1.7412    0.4606 O   0  0  0  0  0  0  0  0  0  0  0  0
    4.4971    1.5538    1.0802 C   0  0  0  0  0  0  0  0  0  0  0  0
    3.3024    1.4947    0.3794 N   0  0  0  0  0  0  0  0  0  0  0  0
    1.9693    1.7628    0.7380 C   0  0  0  0  0  0  0  0  0  0  0  0
    0.9496    1.2171   -0.0735 C   0  0  0  0  0  0  0  0  0  0  0  0
    1.3389    0.2931   -1.1981 C   0  0  0  0  0  0  0  0  0  0  0  0
   -0.3899    1.5367    0.2230 C   0  0  0  0  0  0  0  0  0  0  0  0
   -1.5268    1.0402   -0.6017 C   0  0  0  0  0  0  0  0  0  0  0  0
   -2.5602    0.3070   -0.0106 C   0  0  0  0  0  0  0  0  0  0  0  0
   -3.6379   -0.1810   -0.7617 C   0  0  0  0  0  0  0  0  0  0  0  0
   -3.7422    0.0407   -2.1358 C   0  0  0  0  0  0  0  0  0  0  0  0
   -4.8171   -0.5035   -3.0093 C   0  0  0  0  0  0  0  0  0  0  0  0
   -5.6035   -1.4816   -2.4793 N   0  0  0  0  0  0  0  0  0  0  0  0
   -4.9916   -0.1020   -4.1539 O   0  0  0  0  0  0  0  0  0  0  0  0
   -1.6290    1.3258   -1.9779 C   0  0  0  0  0  0  0  0  0  0  0  0
   -2.7292    0.8236   -2.7166 C   0  0  0  0  0  0  0  0  0  0  0  0
   -2.5884    1.2402   -4.0095 N   0  0  0  0  0  0  0  0  0  0  0  0
   -3.2927    1.0314   -4.7084 H   0  0  0  0  0  0  0  0  0  0  0  0
   -1.4472    2.0021   -4.1289 C   0  0  0  0  0  0  0  0  0  0  0  0
   -1.0560    2.5974   -5.4397 C   0  0  0  0  0  0  0  0  0  0  0  0
   -0.8298    2.0774   -2.9059 C   0  0  0  0  0  0  0  0  0  0  0  0
   -0.6924    2.3293    1.3358 C   0  0  0  0  0  0  0  0  0  0  0  0
    0.3218    2.8533    2.1256 C   0  0  0  0  0  0  0  0  0  0  0  0
    1.6511    2.5946    1.8159 C   0  0  0  0  0  0  0  0  0  0  0  0
    4.5387    1.3075    2.5454 C   0  0  0  0  0  0  0  0  0  0  0  0
    3.6846    0.5533    3.2421 C   0  0  0  0  0  0  0  0  0  0  0  0
    3.1443   -2.8409    2.9793 S   0  0  0  0  0  1  0  0  0  0  0  0
    2.1496   -2.3145    1.5355 C   0  0  0  0  0  0  0  0  0  0  0  0
    0.6183   -2.4143    1.7134 C   0  0  2  0  0  0  0  0  0  0  0  0
    0.4055   -3.4274    2.1003 H   0  0  0  0  0  0  0  0  0  0  0  0
   -0.0967   -2.2123    0.4677 N   0  0  0  0  0  0  0  0  0  0  0  0
   -0.1535   -3.1172   -0.5353 C   0  0  0  0  0  0  0  0  0  0  0  0
   -0.9671   -2.6805   -1.7464 C   0  0  0  0  0  0  0  0  0  0  0  0
    0.4182   -4.1937   -0.5187 O   0  0  0  0  0  0  0  0  0  0  0  0
    0.0335   -1.3895    2.7008 C   0  0  0  0  0  0  0  0  0  0  0  0
    0.7266   -1.2124    3.8306 N   0  0  0  0  0  0  0  0  0  0  0  0
    0.3392   -0.2146    4.7888 C   0  0  0  0  0  0  0  0  0  0  0  0
   -1.0042   -0.7739    2.4502 O   0  0  0  0  0  0  0  0  0  0  0  0
    3.4870    1.4505   -0.6170 H   0  0  0  0  0  0  0  0  0  0  0  0
    1.8460    0.8326   -2.0177 H   0  0  0  0  0  0  0  0  0  0  0  0
    0.4685   -0.2062   -1.6344 H   0  0  0  0  0  0  0  0  0  0  0  0
    2.0238   -0.4851   -0.8296 H   0  0  0  0  0  0  0  0  0  0  0  0
   -2.4789    0.0635    1.0507 H   0  0  0  0  0  0  0  0  0  0  0  0
   -4.4084   -0.7518   -0.2376 H   0  0  0  0  0  0  0  0  0  0  0  0
   -5.3215   -1.9862   -1.6519 H   0  0  0  0  0  0  0  0  0  0  0  0
   -6.2641   -1.9212   -3.1059 H   0  0  0  0  0  0  0  0  0  0  0  0
   -1.8380    3.2722   -5.8236 H   0  0  0  0  0  0  0  0  0  0  0  0
   -0.8877    1.8172   -6.1993 H   0  0  0  0  0  0  0  0  0  0  0  0
   -0.1289    3.1745   -5.3322 H   0  0  0  0  0  0  0  0  0  0  0  0
    0.0913    2.6114   -2.6859 H   0  0  0  0  0  0  0  0  0  0  0  0
   -1.7377    2.5392    1.5680 H   0  0  0  0  0  0  0  0  0  0  0  0
    0.0788    3.4859    2.9822 H   0  0  0  0  0  0  0  0  0  0  0  0
    2.4504    3.0280    2.4160 H   0  0  0  0  0  0  0  0  0  0  0  0
    5.4636    1.6746    2.9982 H   0  0  0  0  0  0  0  0  0  0  0  0
    2.7817    0.1188    2.8116 H   0  0  0  0  0  0  0  0  0  0  0  0
    3.8730    0.3178    4.2912 H   0  0  0  0  0  0  0  0  0  0  0  0
    2.3953   -2.9522    0.6746 H   0  0  0  0  0  0  0  0  0  0  0  0
    2.3908   -1.2737    1.2460 H   0  0  0  0  0  0  0  0  0  0  0  0
   -0.7265   -1.4160    0.4665 H   0  0  0  0  0  0  0  0  0  0  0  0
   -1.5803   -1.7864   -1.5723 H   0  0  0  0  0  0  0  0  0  0  0  0
   -1.6076   -3.5162   -2.0603 H   0  0  0  0  0  0  0  0  0  0  0  0
   -0.2703   -2.4740   -2.5727 H   0  0  0  0  0  0  0  0  0  0  0  0
    1.6317   -1.7406    3.9063 H   0  0  0  0  0  0  0  0  0  0  0  0
   -0.7059   -0.3520    5.1098 H   0  0  0  0  0  0  0  0  0  0  0  0
    0.4227    0.8051    4.3728 H   0  0  0  0  0  0  0  0  0  0  0  0
    0.9939   -0.2924    5.6678 H   0  0  0  0  0  0  0  0  0  0  0  0
  1  2  2  0  0  0  0
  2 25  1  0  0  0  0
  3  4  1  0  0  0  0
  3  2  1  0  0  0  0
  4 24  1  0  0  0  0
  5  7  1  0  0  0  0
  5  4  2  0  0  0  0
  6 42  1  0  0  0  0
  6  5  1  0  0  0  0
  7 22  2  0  0  0  0
  8  9  1  0  0  0  0
  8  7  1  0  0  0  0
  9 43  1  0  0  0  0
 10 44  1  0  0  0  0
 10  9  2  0  0  0  0
 11 10  1  0  0  0  0
 12 13  1  0  0  0  0
 12 11  1  0  0  0  0
 13 45  1  0  0  0  0
 14 12  2  0  0  0  0
 15  8  2  0  0  0  0
 16 11  2  0  0  0  0
 16 15  1  0  0  0  0
 17 16  1  0  0  0  0
 18 17  1  0  0  0  0
 19 17  1  0  0  0  0
 19 21  2  0  0  0  0
 20 49  1  0  0  0  0
 20 19  1  0  0  0  0
 21 50  1  0  0  0  0
 21 15  1  0  0  0  0
 22 51  1  0  0  0  0
 22 23  1  0  0  0  0
 23 52  1  0  0  0  0
 24 23  2  0  0  0  0
 24 53  1  0  0  0  0
 25 54  1  0  0  0  0
 25 26  2  0  0  0  0
 26 56  1  0  0  0  0
 28 29  1  0  0  0  0
 28 27  1  0  0  0  0
 29 30  1  1  0  0  0
 29 35  1  0  0  0  0
 31 29  1  0  0  0  0
 32 34  2  0  0  0  0
 32 31  1  0  0  0  0
 33 60  1  0  0  0  0
 33 32  1  0  0  0  0
 35 36  1  0  0  0  0
 36 63  1  0  0  0  0
 36 37  1  0  0  0  0
 37 64  1  0  0  0  0
 37 66  1  0  0  0  0
 38 35  2  0  0  0  0
 39  3  1  0  0  0  0
 40  6  1  0  0  0  0
 41  6  1  0  0  0  0
 46 13  1  0  0  0  0
 47 20  1  0  0  0  0
 48 20  1  0  0  0  0
 55 26  1  0  0  0  0
 57 28  1  0  0  0  0
 58 28  1  0  0  0  0
 59 31  1  0  0  0  0
 61 33  1  0  0  0  0
 62 33  1  0  0  0  0
 65 37  1  0  0  0  0
M  END
