-1 1
 OpenBabel05192410563D

 66 68  0  0  1  0  0  0  0  0999 V2000
    5.4586    1.6424    0.4371 O   0  0  0  0  0  0  0  0  0  0  0  0
    4.5172    1.2177    1.1170 C   0  0  0  0  0  0  0  0  0  0  0  0
    3.2682    1.0766    0.3736 N   0  0  0  0  0  0  0  0  0  0  0  0
    1.9930    1.5136    0.6655 C   0  0  0  0  0  0  0  0  0  0  0  0
    0.9308    1.1268   -0.1982 C   0  0  0  0  0  0  0  0  0  0  0  0
    1.2624    0.2629   -1.3872 C   0  0  0  0  0  0  0  0  0  0  0  0
   -0.3839    1.5130    0.1172 C   0  0  0  0  0  0  0  0  0  0  0  0
   -1.5410    1.0618   -0.7052 C   0  0  0  0  0  0  0  0  0  0  0  0
   -2.5402    0.2690   -0.1298 C   0  0  0  0  0  0  0  0  0  0  0  0
   -3.6210   -0.2135   -0.8804 C   0  0  0  0  0  0  0  0  0  0  0  0
   -3.7654    0.0728   -2.2399 C   0  0  0  0  0  0  0  0  0  0  0  0
   -4.8526   -0.4461   -3.1117 C   0  0  0  0  0  0  0  0  0  0  0  0
   -5.6384   -1.4351   -2.5987 N   0  0  0  0  0  0  0  0  0  0  0  0
   -5.0438   -0.0148   -4.2431 O   0  0  0  0  0  0  0  0  0  0  0  0
   -1.6835    1.4065   -2.0630 C   0  0  0  0  0  0  0  0  0  0  0  0
   -2.7858    0.9113   -2.8032 C   0  0  0  0  0  0  0  0  0  0  0  0
   -2.6793    1.3903   -4.0773 N   0  0  0  0  0  0  0  0  0  0  0  0
   -3.3892    1.1945   -4.7739 H   0  0  0  0  0  0  0  0  0  0  0  0
   -1.5552    2.1821   -4.1826 C   0  0  0  0  0  0  0  0  0  0  0  0
   -1.2024    2.8441   -5.4722 C   0  0  0  0  0  0  0  0  0  0  0  0
   -0.9161    2.2150   -2.9695 C   0  0  0  0  0  0  0  0  0  0  0  0
   -0.6480    2.2712    1.2645 C   0  0  0  0  0  0  0  0  0  0  0  0
    0.3992    2.6580    2.0927 C   0  0  0  0  0  0  0  0  0  0  0  0
    1.7060    2.2876    1.8040 C   0  0  0  0  0  0  0  0  0  0  0  0
    4.5574    0.8127    2.4641 C   0  0  0  0  0  3  0  0  0  0  0  0
    3.5639    0.0584    3.2098 C   0  0  0  0  0  0  0  0  0  0  0  0
    3.4408   -1.9011    2.9554 S   0  0  0  0  0  0  0  0  0  0  0  0
    2.2736   -1.9587    1.5591 C   0  0  0  0  0  0  0  0  0  0  0  0
    0.7777   -2.2415    1.8434 C   0  0  2  0  0  0  0  0  0  0  0  0
    0.7024   -3.2625    2.2566 H   0  0  0  0  0  0  0  0  0  0  0  0
    0.0296   -2.1869    0.6093 N   0  0  0  0  0  0  0  0  0  0  0  0
    0.0238   -3.1753   -0.3128 C   0  0  0  0  0  0  0  0  0  0  0  0
   -0.8022   -2.8854   -1.5544 C   0  0  0  0  0  0  0  0  0  0  0  0
    0.6489   -4.2157   -0.1844 O   0  0  0  0  0  0  0  0  0  0  0  0
    0.0596   -1.2963    2.8241 C   0  0  0  0  0  0  0  0  0  0  0  0
    0.6142   -1.1939    4.0476 N   0  0  0  0  0  0  0  0  0  0  0  0
    0.1451   -0.2117    4.9919 C   0  0  0  0  0  0  0  0  0  0  0  0
   -0.9760   -0.7233    2.5140 O   0  0  0  0  0  0  0  0  0  0  0  0
    3.4960    1.0375   -0.6132 H   0  0  0  0  0  0  0  0  0  0  0  0
    1.8000    0.8302   -2.1677 H   0  0  0  0  0  0  0  0  0  0  0  0
    0.3666   -0.1585   -1.8568 H   0  0  0  0  0  0  0  0  0  0  0  0
    1.9178   -0.5696   -1.0869 H   0  0  0  0  0  0  0  0  0  0  0  0
   -2.4388   -0.0068    0.9224 H   0  0  0  0  0  0  0  0  0  0  0  0
   -4.3659   -0.8259   -0.3657 H   0  0  0  0  0  0  0  0  0  0  0  0
   -5.3583   -1.9564   -1.7815 H   0  0  0  0  0  0  0  0  0  0  0  0
   -6.3104   -1.8525   -3.2279 H   0  0  0  0  0  0  0  0  0  0  0  0
   -2.0023    3.5244   -5.8068 H   0  0  0  0  0  0  0  0  0  0  0  0
   -1.0395    2.1036   -6.2718 H   0  0  0  0  0  0  0  0  0  0  0  0
   -0.2816    3.4298   -5.3570 H   0  0  0  0  0  0  0  0  0  0  0  0
    0.0003    2.7525   -2.7383 H   0  0  0  0  0  0  0  0  0  0  0  0
   -1.6784    2.5412    1.5025 H   0  0  0  0  0  0  0  0  0  0  0  0
    0.1958    3.2593    2.9830 H   0  0  0  0  0  0  0  0  0  0  0  0
    2.5369    2.5803    2.4488 H   0  0  0  0  0  0  0  0  0  0  0  0
    5.5544    0.8996    2.9046 H   0  0  0  0  0  0  0  0  0  0  0  0
    2.5153    0.3375    3.0375 H   0  0  0  0  0  0  0  0  0  0  0  0
    3.7479    0.0909    4.2940 H   0  0  0  0  0  0  0  0  0  0  0  0
    2.6049   -2.7575    0.8819 H   0  0  0  0  0  0  0  0  0  0  0  0
    2.3783   -1.0077    1.0234 H   0  0  0  0  0  0  0  0  0  0  0  0
   -0.5718   -1.3757    0.5042 H   0  0  0  0  0  0  0  0  0  0  0  0
   -1.4888   -2.0352   -1.4364 H   0  0  0  0  0  0  0  0  0  0  0  0
   -1.3644   -3.7901   -1.8222 H   0  0  0  0  0  0  0  0  0  0  0  0
   -0.1131   -2.6658   -2.3835 H   0  0  0  0  0  0  0  0  0  0  0  0
    1.5609   -1.5768    4.1448 H   0  0  0  0  0  0  0  0  0  0  0  0
   -0.9527   -0.1819    4.9791 H   0  0  0  0  0  0  0  0  0  0  0  0
    0.5130    0.7998    4.7462 H   0  0  0  0  0  0  0  0  0  0  0  0
    0.4884   -0.4791    6.0007 H   0  0  0  0  0  0  0  0  0  0  0  0
  1  2  2  0  0  0  0
  2 25  1  0  0  0  0
  3  4  1  0  0  0  0
  3  2  1  0  0  0  0
  4 24  1  0  0  0  0
  5  7  1  0  0  0  0
  5  4  2  0  0  0  0
  6 42  1  0  0  0  0
  6  5  1  0  0  0  0
  7 22  2  0  0  0  0
  8  9  1  0  0  0  0
  8  7  1  0  0  0  0
  9 43  1  0  0  0  0
 10 44  1  0  0  0  0
 10  9  2  0  0  0  0
 11 10  1  0  0  0  0
 12 13  1  0  0  0  0
 12 11  1  0  0  0  0
 13 45  1  0  0  0  0
 14 12  2  0  0  0  0
 15  8  2  0  0  0  0
 16 11  2  0  0  0  0
 16 15  1  0  0  0  0
 17 16  1  0  0  0  0
 18 17  1  0  0  0  0
 19 17  1  0  0  0  0
 19 21  2  0  0  0  0
 20 49  1  0  0  0  0
 20 19  1  0  0  0  0
 21 50  1  0  0  0  0
 21 15  1  0  0  0  0
 22 51  1  0  0  0  0
 22 23  1  0  0  0  0
 23 52  1  0  0  0  0
 24 23  2  0  0  0  0
 24 53  1  0  0  0  0
 25 54  1  0  0  0  0
 25 26  1  0  0  0  0
 26 56  1  0  0  0  0
 27 26  1  0  0  0  0
 28 29  1  0  0  0  0
 28 27  1  0  0  0  0
 29 30  1  1  0  0  0
 29 35  1  0  0  0  0
 31 29  1  0  0  0  0
 32 34  2  0  0  0  0
 32 31  1  0  0  0  0
 33 60  1  0  0  0  0
 33 32  1  0  0  0  0
 35 36  1  0  0  0  0
 36 63  1  0  0  0  0
 36 37  1  0  0  0  0
 37 66  1  0  0  0  0
 38 35  2  0  0  0  0
 39  3  1  0  0  0  0
 40  6  1  0  0  0  0
 41  6  1  0  0  0  0
 46 13  1  0  0  0  0
 47 20  1  0  0  0  0
 48 20  1  0  0  0  0
 55 26  1  0  0  0  0
 57 28  1  0  0  0  0
 58 28  1  0  0  0  0
 59 31  1  0  0  0  0
 61 33  1  0  0  0  0
 62 33  1  0  0  0  0
 64 37  1  0  0  0  0
 65 37  1  0  0  0  0
M  END
