-1 1
 OpenBabel05192410563D

 86 89  0  0  1  0  0  0  0  0999 V2000
    4.7851   -1.3992    2.6800 O   0  0  0  0  0  0  0  0  0  0  0  0
    3.7348   -0.8208    2.3805 C   0  0  0  0  0  0  0  0  0  0  0  0
    3.4522   -0.6498    0.9398 N   0  0  0  0  0  0  0  0  0  0  0  0
    3.2001    0.6237    0.4142 C   0  0  0  0  0  0  0  0  0  0  0  0
    2.3449    0.7808   -0.7044 C   0  0  0  0  0  0  0  0  0  0  0  0
    1.6436   -0.4243   -1.2701 C   0  0  0  0  0  0  0  0  0  0  0  0
    2.1149    2.0729   -1.2166 C   0  0  0  0  0  0  0  0  0  0  0  0
    1.1371    2.2984   -2.3229 C   0  0  0  0  0  0  0  0  0  0  0  0
    1.5462    2.5766   -3.6279 C   0  0  0  0  0  0  0  0  0  0  0  0
    0.6223    2.7805   -4.6624 C   0  0  0  0  0  0  0  0  0  0  0  0
   -0.7568    2.7088   -4.4475 C   0  0  0  0  0  0  0  0  0  0  0  0
   -1.7918    2.8653   -5.5045 C   0  0  0  0  0  0  0  0  0  0  0  0
   -1.3603    2.8878   -6.7996 N   0  0  0  0  0  0  0  0  0  0  0  0
   -2.9827    2.9718   -5.2397 O   0  0  0  0  0  0  0  0  0  0  0  0
   -0.2458    2.2590   -2.0665 C   0  0  0  0  0  0  0  0  0  0  0  0
   -1.1703    2.4571   -3.1259 C   0  0  0  0  0  0  0  0  0  0  0  0
   -2.4287    2.3385   -2.6110 N   0  0  0  0  0  0  0  0  0  0  0  0
   -3.2532    2.4839   -3.1811 H   0  0  0  0  0  0  0  0  0  0  0  0
   -2.3419    2.0769   -1.2595 C   0  0  0  0  0  0  0  0  0  0  0  0
   -1.0269    2.0265   -0.8804 C   0  0  0  0  0  0  0  0  0  0  0  0
   -0.6157    1.7299    0.5250 C   0  0  0  0  0  0  0  0  0  0  0  0
   -1.8024    1.8807    1.4760 C   0  0  0  0  0  0  0  0  0  0  0  0
   -3.0638    1.1758    0.9511 C   0  0  2  0  0  0  0  0  0  0  0  0
   -3.5155    1.8262   -0.3703 C   0  0  0  0  0  0  0  0  0  0  0  0
   -4.2114    1.1213    1.9972 C   0  0  0  0  0  0  0  0  0  0  0  0
   -3.7867    0.3245    3.2359 C   0  0  0  0  0  0  0  0  0  0  0  0
   -4.5974    2.4374    2.3762 O   0  0  0  0  0  0  0  0  0  0  0  0
   -5.4689    0.4885    1.4040 C   0  0  0  0  0  0  0  0  0  0  0  0
    2.7239    3.1889   -0.6366 C   0  0  0  0  0  0  0  0  0  0  0  0
    3.5513    3.0279    0.4739 C   0  0  0  0  0  0  0  0  0  0  0  0
    3.7864    1.7630    0.9931 C   0  0  0  0  0  0  0  0  0  0  0  0
    4.0946   -1.6214    0.0747 C   0  0  0  0  0  0  0  0  0  0  0  0
    2.7674   -0.3277    3.2751 C   0  0  0  0  0  3  0  0  0  0  0  0
    1.4379    0.1389    2.9440 C   0  0  0  0  0  0  0  0  0  0  0  0
   -0.0238   -1.2148    2.9641 S   0  0  0  0  0  0  0  0  0  0  0  0
    0.8922   -2.6156    2.2554 C   0  0  0  0  0  0  0  0  0  0  0  0
   -0.0158   -3.6877    1.6279 C   0  0  2  0  0  0  0  0  0  0  0  0
   -0.8796   -3.8480    2.2986 H   0  0  0  0  0  0  0  0  0  0  0  0
    0.6834   -4.9402    1.4720 N   0  0  0  0  0  0  0  0  0  0  0  0
    0.8577   -5.8147    2.4922 C   0  0  0  0  0  0  0  0  0  0  0  0
    1.5966   -7.0891    2.1210 C   0  0  0  0  0  0  0  0  0  0  0  0
    0.4929   -5.5934    3.6327 O   0  0  0  0  0  0  0  0  0  0  0  0
   -0.5474   -3.3209    0.2302 C   0  0  0  0  0  0  0  0  0  0  0  0
   -1.1564   -2.1228    0.1306 N   0  0  0  0  0  0  0  0  0  0  0  0
   -1.6801   -1.6356   -1.1216 C   0  0  0  0  0  0  0  0  0  0  0  0
   -0.4144   -4.0889   -0.7145 O   0  0  0  0  0  0  0  0  0  0  0  0
    2.3059   -1.0323   -1.9053 H   0  0  0  0  0  0  0  0  0  0  0  0
    0.7746   -0.1447   -1.8771 H   0  0  0  0  0  0  0  0  0  0  0  0
    1.3066   -1.0755   -0.4500 H   0  0  0  0  0  0  0  0  0  0  0  0
    2.6156    2.6286   -3.8436 H   0  0  0  0  0  0  0  0  0  0  0  0
    1.0091    3.0157   -5.6575 H   0  0  0  0  0  0  0  0  0  0  0  0
   -0.4415    2.5549   -7.0497 H   0  0  0  0  0  0  0  0  0  0  0  0
   -2.0781    2.8867   -7.5114 H   0  0  0  0  0  0  0  0  0  0  0  0
    0.2140    2.3796    0.8399 H   0  0  0  0  0  0  0  0  0  0  0  0
   -0.2279    0.6998    0.5980 H   0  0  0  0  0  0  0  0  0  0  0  0
   -2.0230    2.9554    1.6132 H   0  0  0  0  0  0  0  0  0  0  0  0
   -1.5097    1.4724    2.4530 H   0  0  0  0  0  0  0  0  0  0  0  0
   -2.7869    0.1289    0.7401 H   0  0  0  0  0  0  0  0  0  0  0  0
   -4.0470    2.7668   -0.1396 H   0  0  0  0  0  0  0  0  0  0  0  0
   -4.2340    1.1771   -0.8963 H   0  0  0  0  0  0  0  0  0  0  0  0
   -2.9510    0.8027    3.7670 H   0  0  0  0  0  0  0  0  0  0  0  0
   -3.4539   -0.6891    2.9681 H   0  0  0  0  0  0  0  0  0  0  0  0
   -4.6315    0.2501    3.9362 H   0  0  0  0  0  0  0  0  0  0  0  0
   -3.8577    2.8326    2.8470 H   0  0  0  0  0  0  0  0  0  0  0  0
   -5.2456   -0.5044    0.9856 H   0  0  0  0  0  0  0  0  0  0  0  0
   -5.8935    1.1209    0.6126 H   0  0  0  0  0  0  0  0  0  0  0  0
   -6.2341    0.3758    2.1856 H   0  0  0  0  0  0  0  0  0  0  0  0
    2.5188    4.1825   -1.0420 H   0  0  0  0  0  0  0  0  0  0  0  0
    4.0224    3.8994    0.9358 H   0  0  0  0  0  0  0  0  0  0  0  0
    4.4271    1.6276    1.8652 H   0  0  0  0  0  0  0  0  0  0  0  0
    4.9289   -2.0582    0.6429 H   0  0  0  0  0  0  0  0  0  0  0  0
    4.4965   -1.1410   -0.8307 H   0  0  0  0  0  0  0  0  0  0  0  0
    3.4127   -2.4342   -0.2395 H   0  0  0  0  0  0  0  0  0  0  0  0
    3.0220   -0.4660    4.3290 H   0  0  0  0  0  0  0  0  0  0  0  0
    1.3354    0.5567    1.9399 H   0  0  0  0  0  0  0  0  0  0  0  0
    1.0146    0.8475    3.6702 H   0  0  0  0  0  0  0  0  0  0  0  0
    1.4726   -3.0868    3.0579 H   0  0  0  0  0  0  0  0  0  0  0  0
    1.6057   -2.2259    1.5141 H   0  0  0  0  0  0  0  0  0  0  0  0
    0.8171   -5.2239    0.5060 H   0  0  0  0  0  0  0  0  0  0  0  0
    1.5382   -7.3267    1.0494 H   0  0  0  0  0  0  0  0  0  0  0  0
    1.1865   -7.9187    2.7107 H   0  0  0  0  0  0  0  0  0  0  0  0
    2.6560   -6.9705    2.3942 H   0  0  0  0  0  0  0  0  0  0  0  0
   -1.1002   -1.5064    0.9490 H   0  0  0  0  0  0  0  0  0  0  0  0
   -1.1859   -2.1641   -1.9474 H   0  0  0  0  0  0  0  0  0  0  0  0
   -1.4904   -0.5580   -1.2191 H   0  0  0  0  0  0  0  0  0  0  0  0
   -2.7675   -1.8066   -1.2063 H   0  0  0  0  0  0  0  0  0  0  0  0
  2  1  2  0  0  0  0
  2 33  1  0  0  0  0
  3  2  1  0  0  0  0
  4  3  1  0  0  0  0
  4 31  1  0  0  0  0
  5  4  2  0  0  0  0
  6  5  1  0  0  0  0
  6 49  1  0  0  0  0
  7  5  1  0  0  0  0
  7 29  2  0  0  0  0
  8 15  1  0  0  0  0
  8  7  1  0  0  0  0
  9  8  2  0  0  0  0
 10 11  2  0  0  0  0
 10  9  1  0  0  0  0
 11 16  1  0  0  0  0
 12 14  2  0  0  0  0
 12 11  1  0  0  0  0
 13 12  1  0  0  0  0
 15 20  1  0  0  0  0
 16 17  1  0  0  0  0
 16 15  2  0  0  0  0
 17 19  1  0  0  0  0
 18 17  1  0  0  0  0
 19 20  2  0  0  0  0
 19 24  1  0  0  0  0
 20 21  1  0  0  0  0
 21 55  1  0  0  0  0
 21 54  1  0  0  0  0
 21 22  1  0  0  0  0
 22 56  1  0  0  0  0
 22 57  1  0  0  0  0
 23 58  1  6  0  0  0
 23 22  1  0  0  0  0
 23 25  1  0  0  0  0
 24 59  1  0  0  0  0
 24 23  1  0  0  0  0
 25 27  1  0  0  0  0
 25 26  1  0  0  0  0
 26 61  1  0  0  0  0
 26 63  1  0  0  0  0
 27 64  1  0  0  0  0
 28 25  1  0  0  0  0
 28 67  1  0  0  0  0
 29 30  1  0  0  0  0
 30 69  1  0  0  0  0
 30 31  2  0  0  0  0
 31 70  1  0  0  0  0
 32 71  1  0  0  0  0
 32  3  1  0  0  0  0
 33 74  1  0  0  0  0
 34 35  1  0  0  0  0
 34 33  1  0  0  0  0
 34 76  1  0  0  0  0
 36 35  1  0  0  0  0
 36 77  1  0  0  0  0
 37 36  1  0  0  0  0
 37 38  1  1  0  0  0
 39 37  1  0  0  0  0
 39 40  1  0  0  0  0
 40 42  2  0  0  0  0
 41 82  1  0  0  0  0
 41 40  1  0  0  0  0
 41 81  1  0  0  0  0
 43 37  1  0  0  0  0
 44 43  1  0  0  0  0
 44 83  1  0  0  0  0
 45 44  1  0  0  0  0
 46 43  2  0  0  0  0
 47  6  1  0  0  0  0
 48  6  1  0  0  0  0
 50  9  1  0  0  0  0
 51 10  1  0  0  0  0
 52 13  1  0  0  0  0
 53 13  1  0  0  0  0
 60 24  1  0  0  0  0
 62 26  1  0  0  0  0
 65 28  1  0  0  0  0
 66 28  1  0  0  0  0
 68 29  1  0  0  0  0
 72 32  1  0  0  0  0
 73 32  1  0  0  0  0
 75 34  1  0  0  0  0
 78 36  1  0  0  0  0
 79 39  1  0  0  0  0
 80 41  1  0  0  0  0
 84 45  1  0  0  0  0
 85 45  1  0  0  0  0
 86 45  1  0  0  0  0
M  END
