86
-1 1
O         4.785103   -1.399185    2.679962
C         3.734759   -0.820761    2.380467
N         3.452201   -0.649790    0.939850
C         3.200092    0.623688    0.414180
C         2.344854    0.780831   -0.704428
C         1.643555   -0.424321   -1.270114
C         2.114879    2.072915   -1.216630
C         1.137094    2.298381   -2.322901
C         1.546232    2.576586   -3.627874
C         0.622315    2.780460   -4.662437
C        -0.756753    2.708828   -4.447509
C        -1.791848    2.865279   -5.504492
N        -1.360280    2.887753   -6.799563
O        -2.982743    2.971771   -5.239701
C        -0.245796    2.259038   -2.066510
C        -1.170347    2.457148   -3.125923
N        -2.428677    2.338510   -2.610983
H        -3.253208    2.483940   -3.181118
C        -2.341913    2.076875   -1.259474
C        -1.026944    2.026493   -0.880403
C        -0.615746    1.729853    0.525006
C        -1.802416    1.880700    1.475999
C        -3.063845    1.175757    0.951073
C        -3.515507    1.826178   -0.370342
C        -4.211447    1.121252    1.997238
C        -3.786706    0.324460    3.235869
O        -4.597445    2.437428    2.376206
C        -5.468854    0.488513    1.404001
C         2.723855    3.188872   -0.636568
C         3.551302    3.027879    0.473946
C         3.786415    1.763049    0.993137
C         4.094560   -1.621403    0.074694
C         2.767387   -0.327692    3.275129
C         1.437869    0.138891    2.944047
S        -0.023771   -1.214758    2.964124
C         0.892219   -2.615564    2.255407
C        -0.015847   -3.687660    1.627943
H        -0.879557   -3.847989    2.298559
N         0.683394   -4.940228    1.471962
C         0.857743   -5.814707    2.492196
C         1.596638   -7.089066    2.121013
O         0.492888   -5.593357    3.632696
C        -0.547411   -3.320945    0.230248
N        -1.156363   -2.122813    0.130567
C        -1.680113   -1.635567   -1.121628
O        -0.414351   -4.088913   -0.714487
H         2.305875   -1.032311   -1.905276
H         0.774637   -0.144675   -1.877089
H         1.306621   -1.075466   -0.450004
H         2.615559    2.628646   -3.843627
H         1.009081    3.015727   -5.657518
H        -0.441496    2.554851   -7.049725
H        -2.078149    2.886738   -7.511439
H         0.213955    2.379603    0.839944
H        -0.227922    0.699820    0.598004
H        -2.023004    2.955444    1.613185
H        -1.509675    1.472379    2.453028
H        -2.786945    0.128878    0.740054
H        -4.046980    2.766804   -0.139573
H        -4.233998    1.177074   -0.896286
H        -2.950998    0.802729    3.766958
H        -3.453884   -0.689117    2.968063
H        -4.631522    0.250078    3.936209
H        -3.857727    2.832577    2.847012
H        -5.245628   -0.504425    0.985587
H        -5.893541    1.120869    0.612594
H        -6.234106    0.375843    2.185616
H         2.518832    4.182537   -1.041984
H         4.022437    3.899388    0.935848
H         4.427110    1.627617    1.865182
H         4.928851   -2.058163    0.642911
H         4.496477   -1.140959   -0.830714
H         3.412708   -2.434171   -0.239546
H         3.021998   -0.466003    4.329010
H         1.335412    0.556709    1.939859
H         1.014600    0.847460    3.670217
H         1.472582   -3.086836    3.057950
H         1.605727   -2.225886    1.514112
H         0.817083   -5.223938    0.506033
H         1.538215   -7.326746    1.049363
H         1.186496   -7.918725    2.710731
H         2.656030   -6.970540    2.394198
H        -1.100183   -1.506390    0.949002
H        -1.185902   -2.164124   -1.947414
H        -1.490370   -0.557983   -1.219119
H        -2.767503   -1.806569   -1.206260
