-1 1
 OpenBabel05232413493D

 86 88  0  0  1  0  0  0  0  0999 V2000
    4.0335   -2.5368    2.7313 O   0  0  0  0  0  0  0  0  0  0  0  0
    3.5213   -1.4759    2.4081 C   0  0  0  0  0  0  0  0  0  0  0  0
    3.5671   -1.0702    1.0919 N   0  0  0  0  0  0  0  0  0  0  0  0
    3.2804    0.2400    0.6123 C   0  0  0  0  0  0  0  0  0  0  0  0
    2.3307    0.4250   -0.4085 C   0  0  0  0  0  0  0  0  0  0  0  0
    1.5309   -0.7193   -0.9651 C   0  0  0  0  0  0  0  0  0  0  0  0
    2.1396    1.7265   -0.9151 C   0  0  0  0  0  0  0  0  0  0  0  0
    1.1764    1.9456   -2.0336 C   0  0  0  0  0  0  0  0  0  0  0  0
    1.6460    2.1250   -3.3368 C   0  0  0  0  0  0  0  0  0  0  0  0
    0.7726    2.2696   -4.4222 C   0  0  0  0  0  0  0  0  0  0  0  0
   -0.6138    2.2407   -4.2535 C   0  0  0  0  0  0  0  0  0  0  0  0
   -1.6011    2.3372   -5.3637 C   0  0  0  0  0  0  0  0  0  0  0  0
   -1.1188    2.1780   -6.6323 N   0  0  0  0  0  0  0  0  0  0  0  0
   -2.7895    2.5488   -5.1650 O   0  0  0  0  0  0  0  0  0  0  0  0
   -0.2130    1.9510   -1.8206 C   0  0  0  0  0  0  0  0  0  0  0  0
   -1.0849    2.1014   -2.9364 C   0  0  0  0  0  0  0  0  0  0  0  0
   -2.3643    2.0696   -2.4703 N   0  0  0  0  0  0  0  0  0  0  0  0
   -3.1608    2.2091   -3.0799 H   0  0  0  0  0  0  0  0  0  0  0  0
   -2.3448    1.9148   -1.1012 C   0  0  0  0  0  0  0  0  0  0  0  0
   -1.0511    1.8346   -0.6564 C   0  0  0  0  0  0  0  0  0  0  0  0
   -0.7276    1.6521    0.7938 C   0  0  0  0  0  0  0  0  0  0  0  0
   -1.9351    2.0186    1.6600 C   0  0  0  0  0  0  0  0  0  0  0  0
   -3.2257    1.3477    1.1615 C   0  0  2  0  0  0  0  0  0  0  0  0
   -3.5694    1.8351   -0.2561 C   0  0  0  0  0  0  0  0  0  0  0  0
   -4.4253    1.5288    2.1300 C   0  0  0  0  0  0  0  0  0  0  0  0
   -4.1107    0.9542    3.5142 C   0  0  0  0  0  0  0  0  0  0  0  0
   -4.7686    2.9099    2.2452 O   0  0  0  0  0  0  0  0  0  0  0  0
   -5.6769    0.8467    1.5813 C   0  0  0  0  0  0  0  0  0  0  0  0
    2.8534    2.8050   -0.3906 C   0  0  0  0  0  0  0  0  0  0  0  0
    3.7747    2.6088    0.6363 C   0  0  0  0  0  0  0  0  0  0  0  0
    3.9983    1.3273    1.1217 C   0  0  0  0  0  0  0  0  0  0  0  0
    4.1943   -2.0117    0.1751 C   0  0  0  0  0  0  0  0  0  0  0  0
    2.8446   -0.6523    3.4554 C   0  0  0  0  0  0  0  0  0  0  0  0
    1.8098    0.1791    3.3239 C   0  0  0  0  0  0  0  0  0  0  0  0
   -1.4606   -1.5249    2.6712 S   0  0  0  0  0  1  0  0  0  0  0  0
    0.0503   -2.3300    2.0356 C   0  0  0  0  0  0  0  0  0  0  0  0
   -0.1490   -3.4855    1.0345 C   0  0  2  0  0  0  0  0  0  0  0  0
   -0.8867   -4.1837    1.4697 H   0  0  0  0  0  0  0  0  0  0  0  0
    1.1014   -4.1745    0.7884 N   0  0  0  0  0  0  0  0  0  0  0  0
    1.6880   -5.0043    1.6901 C   0  0  0  0  0  0  0  0  0  0  0  0
    3.0403   -5.5497    1.2675 C   0  0  0  0  0  0  0  0  0  0  0  0
    1.2136   -5.2534    2.7827 O   0  0  0  0  0  0  0  0  0  0  0  0
   -0.6546   -3.0351   -0.3466 C   0  0  0  0  0  0  0  0  0  0  0  0
   -1.6819   -2.1733   -0.3303 N   0  0  0  0  0  0  0  0  0  0  0  0
   -2.1984   -1.5934   -1.5408 C   0  0  0  0  0  0  0  0  0  0  0  0
   -0.1238   -3.4352   -1.3830 O   0  0  0  0  0  0  0  0  0  0  0  0
    1.7004   -0.8438   -2.0452 H   0  0  0  0  0  0  0  0  0  0  0  0
    0.4560   -0.5341   -0.8355 H   0  0  0  0  0  0  0  0  0  0  0  0
    1.7549   -1.6666   -0.4687 H   0  0  0  0  0  0  0  0  0  0  0  0
    2.7245    2.1373   -3.5104 H   0  0  0  0  0  0  0  0  0  0  0  0
    1.1997    2.4247   -5.4161 H   0  0  0  0  0  0  0  0  0  0  0  0
   -0.2298    1.7272   -6.7907 H   0  0  0  0  0  0  0  0  0  0  0  0
   -1.8118    2.1253   -7.3670 H   0  0  0  0  0  0  0  0  0  0  0  0
    0.1476    2.2565    1.0794 H   0  0  0  0  0  0  0  0  0  0  0  0
   -0.4790    0.5972    1.0127 H   0  0  0  0  0  0  0  0  0  0  0  0
   -2.0640    3.1185    1.6667 H   0  0  0  0  0  0  0  0  0  0  0  0
   -1.7199    1.6859    2.6840 H   0  0  0  0  0  0  0  0  0  0  0  0
   -3.0032    0.2675    1.1303 H   0  0  0  0  0  0  0  0  0  0  0  0
   -4.0578    2.8241   -0.1887 H   0  0  0  0  0  0  0  0  0  0  0  0
   -4.2955    1.1584   -0.7358 H   0  0  0  0  0  0  0  0  0  0  0  0
   -3.3112    1.5198    4.0151 H   0  0  0  0  0  0  0  0  0  0  0  0
   -3.7681   -0.0891    3.4447 H   0  0  0  0  0  0  0  0  0  0  0  0
   -5.0074    1.0060    4.1498 H   0  0  0  0  0  0  0  0  0  0  0  0
   -4.0271    3.3500    2.6709 H   0  0  0  0  0  0  0  0  0  0  0  0
   -5.4788   -0.2174    1.3851 H   0  0  0  0  0  0  0  0  0  0  0  0
   -6.0176    1.3254    0.6528 H   0  0  0  0  0  0  0  0  0  0  0  0
   -6.4945    0.9235    2.3131 H   0  0  0  0  0  0  0  0  0  0  0  0
    2.6763    3.8049   -0.7936 H   0  0  0  0  0  0  0  0  0  0  0  0
    4.3307    3.4546    1.0469 H   0  0  0  0  0  0  0  0  0  0  0  0
    4.7310    1.1496    1.9107 H   0  0  0  0  0  0  0  0  0  0  0  0
    5.2258   -2.2341    0.4910 H   0  0  0  0  0  0  0  0  0  0  0  0
    4.2073   -1.5764   -0.8309 H   0  0  0  0  0  0  0  0  0  0  0  0
    3.6351   -2.9576    0.1570 H   0  0  0  0  0  0  0  0  0  0  0  0
    3.2072   -0.9195    4.4518 H   0  0  0  0  0  0  0  0  0  0  0  0
    1.3597    0.4290    2.3626 H   0  0  0  0  0  0  0  0  0  0  0  0
    1.3357    0.6134    4.2063 H   0  0  0  0  0  0  0  0  0  0  0  0
    0.6151   -2.7514    2.8783 H   0  0  0  0  0  0  0  0  0  0  0  0
    0.7093   -1.5925    1.5493 H   0  0  0  0  0  0  0  0  0  0  0  0
    1.3700   -4.1958   -0.1920 H   0  0  0  0  0  0  0  0  0  0  0  0
    3.1693   -5.5923    0.1755 H   0  0  0  0  0  0  0  0  0  0  0  0
    3.1777   -6.5485    1.7011 H   0  0  0  0  0  0  0  0  0  0  0  0
    3.8014   -4.8749    1.6905 H   0  0  0  0  0  0  0  0  0  0  0  0
   -1.9490   -1.8036    0.6082 H   0  0  0  0  0  0  0  0  0  0  0  0
   -2.3895   -2.3716   -2.2950 H   0  0  0  0  0  0  0  0  0  0  0  0
   -1.5031   -0.8602   -1.9886 H   0  0  0  0  0  0  0  0  0  0  0  0
   -3.1397   -1.0733   -1.3150 H   0  0  0  0  0  0  0  0  0  0  0  0
  2  1  2  0  0  0  0
  2 33  1  0  0  0  0
  3  2  1  0  0  0  0
  4  3  1  0  0  0  0
  4 31  1  0  0  0  0
  5  4  2  0  0  0  0
  6 48  1  0  0  0  0
  6 49  1  0  0  0  0
  6  5  1  0  0  0  0
  7  5  1  0  0  0  0
  7 29  2  0  0  0  0
  8 15  1  0  0  0  0
  8  7  1  0  0  0  0
  9  8  2  0  0  0  0
 10 11  2  0  0  0  0
 10  9  1  0  0  0  0
 11 16  1  0  0  0  0
 12 14  2  0  0  0  0
 12 11  1  0  0  0  0
 13 12  1  0  0  0  0
 15 20  1  0  0  0  0
 16 17  1  0  0  0  0
 16 15  2  0  0  0  0
 17 19  1  0  0  0  0
 18 17  1  0  0  0  0
 19 20  2  0  0  0  0
 19 24  1  0  0  0  0
 20 21  1  0  0  0  0
 21 55  1  0  0  0  0
 21 54  1  0  0  0  0
 21 22  1  0  0  0  0
 22 56  1  0  0  0  0
 22 57  1  0  0  0  0
 23 58  1  6  0  0  0
 23 22  1  0  0  0  0
 23 25  1  0  0  0  0
 24 59  1  0  0  0  0
 24 23  1  0  0  0  0
 25 27  1  0  0  0  0
 25 26  1  0  0  0  0
 26 61  1  0  0  0  0
 26 63  1  0  0  0  0
 27 64  1  0  0  0  0
 28 25  1  0  0  0  0
 28 67  1  0  0  0  0
 29 30  1  0  0  0  0
 30 69  1  0  0  0  0
 30 31  2  0  0  0  0
 31 70  1  0  0  0  0
 32 71  1  0  0  0  0
 32  3  1  0  0  0  0
 33 74  1  0  0  0  0
 34 33  2  0  0  0  0
 34 76  1  0  0  0  0
 36 35  1  0  0  0  0
 36 77  1  0  0  0  0
 37 38  1  1  0  0  0
 37 36  1  0  0  0  0
 39 37  1  0  0  0  0
 39 40  1  0  0  0  0
 40 42  2  0  0  0  0
 41 40  1  0  0  0  0
 41 82  1  0  0  0  0
 41 81  1  0  0  0  0
 43 44  1  0  0  0  0
 43 37  1  0  0  0  0
 44 83  1  0  0  0  0
 45 86  1  0  0  0  0
 45 44  1  0  0  0  0
 46 43  2  0  0  0  0
 47  6  1  0  0  0  0
 50  9  1  0  0  0  0
 51 10  1  0  0  0  0
 52 13  1  0  0  0  0
 53 13  1  0  0  0  0
 60 24  1  0  0  0  0
 62 26  1  0  0  0  0
 65 28  1  0  0  0  0
 66 28  1  0  0  0  0
 68 29  1  0  0  0  0
 72 32  1  0  0  0  0
 73 32  1  0  0  0  0
 75 34  1  0  0  0  0
 78 36  1  0  0  0  0
 79 39  1  0  0  0  0
 80 41  1  0  0  0  0
 84 45  1  0  0  0  0
 85 45  1  0  0  0  0
M  END
