86
-1 1
O         4.033467   -2.536781    2.731322
C         3.521313   -1.475919    2.408080
N         3.567130   -1.070162    1.091915
C         3.280379    0.239965    0.612256
C         2.330692    0.424990   -0.408541
C         1.530946   -0.719277   -0.965145
C         2.139556    1.726504   -0.915148
C         1.176401    1.945575   -2.033623
C         1.646027    2.124953   -3.336819
C         0.772618    2.269555   -4.422162
C        -0.613835    2.240674   -4.253477
C        -1.601059    2.337231   -5.363684
N        -1.118774    2.178013   -6.632325
O        -2.789500    2.548810   -5.164996
C        -0.212988    1.950991   -1.820592
C        -1.084854    2.101450   -2.936436
N        -2.364281    2.069644   -2.470278
H        -3.160845    2.209131   -3.079886
C        -2.344777    1.914814   -1.101152
C        -1.051135    1.834629   -0.656372
C        -0.727586    1.652061    0.793770
C        -1.935052    2.018551    1.660010
C        -3.225669    1.347675    1.161459
C        -3.569431    1.835110   -0.256091
C        -4.425293    1.528848    2.130008
C        -4.110724    0.954166    3.514176
O        -4.768603    2.909913    2.245210
C        -5.676925    0.846700    1.581323
C         2.853423    2.805008   -0.390639
C         3.774689    2.608838    0.636306
C         3.998329    1.327332    1.121656
C         4.194285   -2.011690    0.175143
C         2.844574   -0.652298    3.455399
C         1.809825    0.179057    3.323940
S        -1.460588   -1.524860    2.671222
C         0.050295   -2.329996    2.035612
C        -0.149041   -3.485536    1.034468
H        -0.886652   -4.183729    1.469688
N         1.101417   -4.174506    0.788386
C         1.687962   -5.004343    1.690125
C         3.040341   -5.549740    1.267510
O         1.213592   -5.253433    2.782735
C        -0.654564   -3.035110   -0.346627
N        -1.681866   -2.173331   -0.330272
C        -2.198371   -1.593379   -1.540792
O        -0.123791   -3.435153   -1.382976
H         1.700370   -0.843849   -2.045232
H         0.456019   -0.534063   -0.835516
H         1.754876   -1.666619   -0.468702
H         2.724516    2.137299   -3.510419
H         1.199736    2.424723   -5.416106
H        -0.229752    1.727165   -6.790710
H        -1.811797    2.125331   -7.367040
H         0.147595    2.256516    1.079429
H        -0.479030    0.597178    1.012673
H        -2.063996    3.118528    1.666665
H        -1.719890    1.685885    2.684042
H        -3.003188    0.267487    1.130324
H        -4.057770    2.824115   -0.188722
H        -4.295477    1.158385   -0.735753
H        -3.311186    1.519849    4.015072
H        -3.768119   -0.089141    3.444735
H        -5.007403    1.005999    4.149834
H        -4.027081    3.349959    2.670939
H        -5.478838   -0.217436    1.385065
H        -6.017639    1.325442    0.652793
H        -6.494531    0.923456    2.313079
H         2.676321    3.804931   -0.793566
H         4.330714    3.454569    1.046869
H         4.731047    1.149612    1.910710
H         5.225798   -2.234064    0.491021
H         4.207348   -1.576448   -0.830881
H         3.635050   -2.957591    0.156958
H         3.207222   -0.919483    4.451770
H         1.359737    0.429041    2.362607
H         1.335694    0.613358    4.206318
H         0.615120   -2.751406    2.878329
H         0.709303   -1.592506    1.549303
H         1.370013   -4.195764   -0.191955
H         3.169342   -5.592316    0.175518
H         3.177668   -6.548457    1.701127
H         3.801427   -4.874924    1.690461
H        -1.949027   -1.803581    0.608232
H        -2.389494   -2.371602   -2.295042
H        -1.503111   -0.860227   -1.988568
H        -3.139702   -1.073250   -1.314991
