77
-1 1
O         5.108859   11.100155   -1.605737
C         5.307411   10.677341   -2.741482
N         6.074809   11.459343   -3.599293
C         6.653976   11.172668   -4.840265
C         7.943424   11.683558   -5.107186
C         8.659762   12.469367   -4.040502
C         8.527579   11.418382   -6.355666
C         9.863942   11.968486   -6.717332
C        10.977121   11.129968   -6.828065
C        12.229737   11.642068   -7.175588
C        12.439043   13.004923   -7.401214
C        13.814699   13.485558   -7.721274
N        14.071616   14.805242   -7.380842
O        14.659500   12.795346   -8.249892
C        10.034381   13.335409   -6.987845
C        11.313232   13.842104   -7.318683
N        11.207583   15.203163   -7.541028
H        11.945112   15.762607   -7.945734
C         9.889666   15.591650   -7.396975
C         9.119112   14.464854   -7.034802
C         7.744833   14.628934   -6.827511
C         7.181260   15.888899   -6.986914
C         7.954945   17.008056   -7.356400
C         7.328889   18.402571   -7.486308
C         7.230211   19.048545   -6.104160
O         8.173105   19.258414   -8.242401
C         5.951922   18.353336   -8.159434
C         9.326352   16.858380   -7.558458
C         7.861745   10.630680   -7.298948
C         6.590901   10.141010   -7.024370
C         5.976869   10.426305   -5.811220
C         4.795435    9.432519   -3.208900
C         4.518541    8.259800   -3.471752
S         6.348076    6.417602   -3.401346
C         7.675928    7.458393   -4.080015
C         8.614163    8.033813   -3.010873
H         9.162994    7.200760   -2.529451
N         7.791605    8.689560   -1.998839
C         8.159320    8.933823   -0.721059
C         7.011151    9.107921    0.245677
O         9.332717    9.014309   -0.355734
C         9.697153    8.920192   -3.655214
N        10.365785    9.731384   -2.803475
C        11.495761   10.507726   -3.236611
O         9.966445    8.839278   -4.845448
H         6.471208   12.234431   -3.082176
H         8.147656   13.422413   -3.818245
H         9.683726   12.718512   -4.341763
H         8.719489   11.880634   -3.111319
H        10.854238   10.074489   -6.575488
H        13.091980   10.976483   -7.252504
H        13.589996   15.178715   -6.569901
H        15.050014   15.061473   -7.455688
H         7.122913   13.776402   -6.550172
H         6.109116   16.002199   -6.817697
H         8.231378   19.126764   -5.657427
H         6.598458   18.444442   -5.437968
H         6.802522   20.059044   -6.189376
H         8.262900   18.872266   -9.119873
H         5.206592   17.823309   -7.550678
H         6.011707   17.843907   -9.134372
H         5.596267   19.381595   -8.320009
H         9.936024   17.722298   -7.827301
H         8.347629   10.415941   -8.252694
H         6.065117    9.532409   -7.762900
H         4.974956   10.057157   -5.600638
H         3.890053    7.451218   -3.799112
H         7.239059    8.306265   -4.635147
H         8.285849    6.898927   -4.799809
H         6.809977    8.423570   -2.120359
H         6.252145    9.794120   -0.160461
H         7.401228    9.484520    1.198552
H         6.528778    8.131253    0.407685
H        10.192462    9.582677   -1.801344
H        11.302718   10.935094   -4.229595
H        12.420369    9.906484   -3.312070
H        11.671887   11.327584   -2.525657
