-1 1
 OpenBabel05192410563D

 77 80  0  0  1  0  0  0  0  0999 V2000
   -4.0582   -0.6417    3.3373 O   0  0  0  0  0  0  0  0  0  0  0  0
   -3.6027   -1.1903    2.3378 C   0  0  0  0  0  0  0  0  0  0  0  0
   -3.4999   -0.4208    1.1483 N   0  0  0  0  0  0  0  0  0  0  0  0
   -2.6200   -0.7916    0.1036 C   0  0  0  0  0  0  0  0  0  0  0  0
   -1.2998   -0.3008    0.0709 C   0  0  0  0  0  0  0  0  0  0  0  0
   -0.8147    0.5560    1.2096 C   0  0  0  0  0  0  0  0  0  0  0  0
   -0.4644   -0.6742   -0.9995 C   0  0  0  0  0  0  0  0  0  0  0  0
    0.9066   -0.1117   -1.1461 C   0  0  0  0  0  0  0  0  0  0  0  0
    2.0288   -0.9452   -1.1017 C   0  0  0  0  0  0  0  0  0  0  0  0
    3.3186   -0.4232   -1.2233 C   0  0  0  0  0  0  0  0  0  0  0  0
    3.5566    0.9453   -1.3670 C   0  0  0  0  0  0  0  0  0  0  0  0
    4.9634    1.4358   -1.4328 C   0  0  0  0  0  0  0  0  0  0  0  0
    5.1502    2.7466   -1.0195 N   0  0  0  0  0  0  0  0  0  0  0  0
    5.8913    0.7609   -1.8248 O   0  0  0  0  0  0  0  0  0  0  0  0
    1.1123    1.2628   -1.3628 C   0  0  0  0  0  0  0  0  0  0  0  0
    2.4275    1.7769   -1.4578 C   0  0  0  0  0  0  0  0  0  0  0  0
    2.3591    3.1409   -1.6749 N   0  0  0  0  0  0  0  0  0  0  0  0
    3.1555    3.7049   -1.9367 H   0  0  0  0  0  0  0  0  0  0  0  0
    1.0365    3.5244   -1.7726 C   0  0  0  0  0  0  0  0  0  0  0  0
    0.2167    2.3921   -1.5698 C   0  0  0  0  0  0  0  0  0  0  0  0
   -1.1721    2.5541   -1.6353 C   0  0  0  0  0  0  0  0  0  0  0  0
   -1.6994    3.8136   -1.8922 C   0  0  0  0  0  0  0  0  0  0  0  0
   -0.8740    4.9383   -2.0945 C   0  0  0  0  0  0  0  0  0  0  0  0
   -1.4670    6.3331   -2.3302 C   0  0  0  0  0  0  0  0  0  0  0  0
   -1.8145    6.9739   -0.9863 C   0  0  0  0  0  0  0  0  0  0  0  0
   -0.5000    7.1916   -2.9180 O   0  0  0  0  0  0  0  0  0  0  0  0
   -2.6995    6.2881   -3.2416 C   0  0  0  0  0  0  0  0  0  0  0  0
    0.5108    4.7916   -2.0294 C   0  0  0  0  0  0  0  0  0  0  0  0
   -0.9170   -1.5902   -1.9554 C   0  0  0  0  0  0  0  0  0  0  0  0
   -2.2085   -2.1029   -1.8879 C   0  0  0  0  0  0  0  0  0  0  0  0
   -3.0624   -1.6858   -0.8735 C   0  0  0  0  0  0  0  0  0  0  0  0
   -2.9733   -2.4759    2.2653 C   0  0  0  0  0  3  0  0  0  0  0  0
   -3.4768   -3.6804    2.0479 C   0  0  0  0  0  0  0  0  0  0  0  0
   -2.4587   -5.1697    1.8872 S   0  0  0  0  0  0  0  0  0  0  0  0
   -0.9509   -4.5433    1.0849 C   0  0  0  0  0  0  0  0  0  0  0  0
    0.1667   -4.0704    2.0159 C   0  0  2  0  0  0  0  0  0  0  0  0
    0.4366   -4.8832    2.7167 H   0  0  0  0  0  0  0  0  0  0  0  0
   -0.2805   -2.9245    2.7840 N   0  0  0  0  0  0  0  0  0  0  0  0
    0.2598   -2.5579    3.9517 C   0  0  0  0  0  0  0  0  0  0  0  0
   -0.5099   -1.4987    4.7147 C   0  0  0  0  0  0  0  0  0  0  0  0
    1.3265   -3.0023    4.3987 O   0  0  0  0  0  0  0  0  0  0  0  0
    1.4368   -3.7730    1.1881 C   0  0  0  0  0  0  0  0  0  0  0  0
    2.4914   -3.3780    1.9312 N   0  0  0  0  0  0  0  0  0  0  0  0
    3.7613   -3.0269    1.3572 C   0  0  0  0  0  0  0  0  0  0  0  0
    1.4767   -3.9179   -0.0285 O   0  0  0  0  0  0  0  0  0  0  0  0
   -3.5381    0.5688    1.3708 H   0  0  0  0  0  0  0  0  0  0  0  0
   -1.2264    1.5787    1.1620 H   0  0  0  0  0  0  0  0  0  0  0  0
    0.2792    0.6391    1.2160 H   0  0  0  0  0  0  0  0  0  0  0  0
   -1.1309    0.1150    2.1664 H   0  0  0  0  0  0  0  0  0  0  0  0
    1.8866   -2.0180   -0.9405 H   0  0  0  0  0  0  0  0  0  0  0  0
    4.1840   -1.0877   -1.1803 H   0  0  0  0  0  0  0  0  0  0  0  0
    4.5332    3.0973   -0.2946 H   0  0  0  0  0  0  0  0  0  0  0  0
    6.1255    3.0046   -0.9154 H   0  0  0  0  0  0  0  0  0  0  0  0
   -1.8345    1.6993   -1.4920 H   0  0  0  0  0  0  0  0  0  0  0  0
   -2.7845    3.9218   -1.9347 H   0  0  0  0  0  0  0  0  0  0  0  0
   -0.9111    7.0490   -0.3649 H   0  0  0  0  0  0  0  0  0  0  0  0
   -2.5567    6.3677   -0.4483 H   0  0  0  0  0  0  0  0  0  0  0  0
   -2.2193    7.9852   -1.1435 H   0  0  0  0  0  0  0  0  0  0  0  0
   -0.2427    6.8008   -3.7596 H   0  0  0  0  0  0  0  0  0  0  0  0
   -3.5441    5.7597   -2.7785 H   0  0  0  0  0  0  0  0  0  0  0  0
   -2.4655    5.7800   -4.1906 H   0  0  0  0  0  0  0  0  0  0  0  0
   -3.0174    7.3176   -3.4618 H   0  0  0  0  0  0  0  0  0  0  0  0
    1.1596    5.6574   -2.1704 H   0  0  0  0  0  0  0  0  0  0  0  0
   -0.2422   -1.8950   -2.7580 H   0  0  0  0  0  0  0  0  0  0  0  0
   -2.5512   -2.8248   -2.6323 H   0  0  0  0  0  0  0  0  0  0  0  0
   -4.0821   -2.0654   -0.7969 H   0  0  0  0  0  0  0  0  0  0  0  0
   -4.5364   -3.9381    1.8923 H   0  0  0  0  0  0  0  0  0  0  0  0
   -1.2428   -3.7258    0.4087 H   0  0  0  0  0  0  0  0  0  0  0  0
   -0.5656   -5.3596    0.4606 H   0  0  0  0  0  0  0  0  0  0  0  0
   -1.2904   -2.5919    2.5597 H   0  0  0  0  0  0  0  0  0  0  0  0
   -1.5394   -1.3656    4.3527 H   0  0  0  0  0  0  0  0  0  0  0  0
    0.0312   -0.5432    4.6333 H   0  0  0  0  0  0  0  0  0  0  0  0
   -0.5210   -1.7792    5.7768 H   0  0  0  0  0  0  0  0  0  0  0  0
    2.3217   -3.2715    2.9416 H   0  0  0  0  0  0  0  0  0  0  0  0
    3.9270   -1.9358    1.3515 H   0  0  0  0  0  0  0  0  0  0  0  0
    3.7896   -3.3832    0.3185 H   0  0  0  0  0  0  0  0  0  0  0  0
    4.5852   -3.4974    1.9166 H   0  0  0  0  0  0  0  0  0  0  0  0
  2  1  2  0  0  0  0
  3 46  1  0  0  0  0
  3  2  1  0  0  0  0
  4  3  1  0  0  0  0
  5  4  1  0  0  0  0
  5  6  1  0  0  0  0
  6 48  1  0  0  0  0
  6 49  1  0  0  0  0
  7  5  2  0  0  0  0
  8  9  1  0  0  0  0
  8  7  1  0  0  0  0
  9 50  1  0  0  0  0
 10 51  1  0  0  0  0
 10  9  2  0  0  0  0
 11 10  1  0  0  0  0
 12 11  1  0  0  0  0
 12 13  1  0  0  0  0
 13 53  1  0  0  0  0
 13 52  1  0  0  0  0
 14 12  2  0  0  0  0
 15  8  2  0  0  0  0
 16 11  2  0  0  0  0
 16 15  1  0  0  0  0
 17 16  1  0  0  0  0
 18 17  1  0  0  0  0
 19 17  1  0  0  0  0
 19 20  1  0  0  0  0
 20 15  1  0  0  0  0
 21 20  2  0  0  0  0
 21 54  1  0  0  0  0
 22 21  1  0  0  0  0
 23 28  1  0  0  0  0
 23 22  2  0  0  0  0
 24 23  1  0  0  0  0
 24 25  1  0  0  0  0
 25 57  1  0  0  0  0
 25 56  1  0  0  0  0
 26 24  1  0  0  0  0
 27 60  1  0  0  0  0
 27 24  1  0  0  0  0
 28 19  2  0  0  0  0
 29 30  2  0  0  0  0
 29  7  1  0  0  0  0
 30 31  1  0  0  0  0
 31 66  1  0  0  0  0
 31  4  2  0  0  0  0
 32  2  1  0  0  0  0
 33 32  2  0  0  0  0
 34 33  1  0  0  0  0
 35 34  1  0  0  0  0
 35 36  1  0  0  0  0
 36 37  1  1  0  0  0
 36 38  1  0  0  0  0
 38 39  1  0  0  0  0
 39 41  2  0  0  0  0
 39 40  1  0  0  0  0
 40 73  1  0  0  0  0
 42 43  1  0  0  0  0
 42 36  1  0  0  0  0
 43 74  1  0  0  0  0
 44 77  1  0  0  0  0
 44 43  1  0  0  0  0
 45 42  2  0  0  0  0
 47  6  1  0  0  0  0
 55 22  1  0  0  0  0
 58 25  1  0  0  0  0
 59 26  1  0  0  0  0
 61 27  1  0  0  0  0
 62 27  1  0  0  0  0
 63 28  1  0  0  0  0
 64 29  1  0  0  0  0
 65 30  1  0  0  0  0
 67 33  1  0  0  0  0
 68 35  1  0  0  0  0
 69 35  1  0  0  0  0
 70 38  1  0  0  0  0
 71 40  1  0  0  0  0
 72 40  1  0  0  0  0
 75 44  1  0  0  0  0
 76 44  1  0  0  0  0
M  END
