83
-1 1
C         3.653724   -2.555815   -0.875008
O         2.421786   -3.100631   -1.295578
C         1.303297   -2.742086   -0.637594
C         1.212809   -1.731340    0.291332
C         0.131469   -3.499712   -0.977450
O         0.315995   -4.434238   -1.927994
C        -0.784307   -5.202915   -2.341593
C        -0.315300   -6.150682   -3.427990
C        -1.428344   -7.080971   -3.893714
N        -1.056447   -7.885667   -5.032449
C         0.009966   -8.844324   -4.809452
C        -0.020071   -9.733792   -6.061287
C        -1.453134   -9.566557   -6.619989
C        -2.144535   -8.655022   -5.601846
C        -1.061647   -3.242779   -0.343450
C        -1.162301   -2.218193    0.634794
C        -0.019386   -1.450792    0.940852
C        -0.226163   -0.379553    1.884526
N         0.790494    0.479211    2.160063
C         0.691244    1.812366    2.593396
C        -0.187279    2.368179    3.459473
C        -0.193713    3.814427    3.848483
O        -1.006294    4.176439    4.734013
C         0.727919    4.622955    3.169572
C         1.535940    4.121923    2.067742
S         0.481184    4.381640    0.412597
C         1.094926    3.302702   -0.923605
C         0.440961    1.905147   -1.015542
H         0.769731    1.328205   -0.142152
N         0.855011    1.200413   -2.207393
C         1.989786    0.476996   -2.289213
C         2.124331   -0.401357   -3.516672
O         2.849675    0.493363   -1.418797
C        -1.097029    1.902870   -1.061790
N        -1.713851    2.023898    0.123575
C        -3.147564    2.058702    0.254804
O        -1.687081    1.740542   -2.123963
C         1.771579    2.646633    2.021504
O         2.743038    2.137261    1.485170
O         0.798438    5.991282    3.369680
C        -0.392552    6.716982    3.245383
C        -0.902665    7.157668    4.601111
F        -0.046878    8.055693    5.160857
F        -2.092925    7.806098    4.432088
N        -1.405624   -0.194991    2.453395
C        -2.404651   -1.020432    2.096657
N        -2.369238   -1.999592    1.231688
H         4.428471   -3.063074   -1.463734
H         3.825762   -2.760174    0.196722
H         3.698515   -1.469426   -1.055096
H         2.094913   -1.121816    0.484996
H        -1.590372   -4.545021   -2.718518
H        -1.199009   -5.768854   -1.485232
H         0.536987   -6.726172   -3.034194
H         0.056408   -5.570632   -4.286733
H        -2.305799   -6.476834   -4.181825
H        -1.759616   -7.721515   -3.039684
H        -0.184863   -9.454783   -3.895749
H         0.979061   -8.344372   -4.665543
H         0.218400  -10.778220   -5.814874
H         0.724989   -9.395310   -6.794986
H        -1.981104  -10.523648   -6.736592
H        -1.427874   -9.083023   -7.606923
H        -2.659538   -9.267331   -4.823543
H        -2.903190   -7.994165   -6.050125
H        -1.971549   -3.799116   -0.562132
H         1.666983    0.350020    1.658153
H        -0.950297    1.755491    3.938807
H         2.461971    4.678419    1.886423
H         2.178091    3.149182   -0.806706
H         0.925438    3.846465   -1.865835
H         0.113664    1.116272   -2.899431
H         3.129855   -0.270178   -3.938573
H         1.370261   -0.193806   -4.287888
H         2.031597   -1.450491   -3.194798
H        -1.155533    2.304243    0.926040
H        -3.595670    1.370540   -0.474017
H        -3.554777    3.068215    0.078208
H        -3.415823    1.740442    1.270638
H        -1.181514    6.124560    2.754686
H        -0.200604    7.622103    2.641852
H        -1.034653    6.296186    5.270502
H        -3.363955   -0.834658    2.596213
