-1 1
 OpenBabel05232414493D

 83 86  0  0  1  0  0  0  0  0999 V2000
   10.4429   -5.2889  -14.6794 C   0  0  0  0  0  0  0  0  0  0  0  0
    9.2094   -5.8266  -15.1048 O   0  0  0  0  0  0  0  0  0  0  0  0
    8.0896   -5.4586  -14.4549 C   0  0  0  0  0  0  0  0  0  0  0  0
    8.0017   -4.4503  -13.5233 C   0  0  0  0  0  0  0  0  0  0  0  0
    6.9128   -6.2031  -14.8068 C   0  0  0  0  0  0  0  0  0  0  0  0
    7.0930   -7.1271  -15.7682 O   0  0  0  0  0  0  0  0  0  0  0  0
    5.9856   -7.8751  -16.2010 C   0  0  0  0  0  0  0  0  0  0  0  0
    6.4480   -8.8071  -17.3037 C   0  0  0  0  0  0  0  0  0  0  0  0
    5.3256   -9.7144  -17.7920 C   0  0  0  0  0  0  0  0  0  0  0  0
    5.6924  -10.5015  -18.9445 N   0  0  0  0  0  0  0  0  0  0  0  0
    6.7455  -11.4780  -18.7356 C   0  0  0  0  0  0  0  0  0  0  0  0
    6.7095  -12.3431  -20.0043 C   0  0  0  0  0  0  0  0  0  0  0  0
    5.2819  -12.1451  -20.5669 C   0  0  0  0  0  0  0  0  0  0  0  0
    4.5973  -11.2454  -19.5338 C   0  0  0  0  0  0  0  0  0  0  0  0
    5.7205   -5.9463  -14.1715 C   0  0  0  0  0  0  0  0  0  0  0  0
    5.6250   -4.9321  -13.1820 C   0  0  0  0  0  0  0  0  0  0  0  0
    6.7698   -4.1690  -12.8731 C   0  0  0  0  0  0  0  0  0  0  0  0
    6.5644   -3.1007  -11.9268 C   0  0  1  0  0  3  0  0  0  0  0  0
    7.5759   -2.2282  -11.6716 N   0  0  0  0  0  0  0  0  0  0  0  0
    7.4665   -0.8929  -11.2567 C   0  0  0  0  0  0  0  0  0  0  0  0
    6.5878   -0.3341  -10.3963 C   0  0  0  0  0  0  0  0  0  0  0  0
    6.5766    1.1206  -10.0407 C   0  0  0  0  0  0  0  0  0  0  0  0
    5.7642    1.5029   -9.1706 O   0  0  0  0  0  0  0  0  0  0  0  0
    7.5019    1.9278  -10.7332 C   0  0  1  0  0  3  0  0  0  0  0  0
    8.3006    1.4137  -11.8089 C   0  0  2  0  0  0  0  0  0  0  0  0
    7.1771    1.5541  -13.5335 S   0  0  0  0  0  0  0  0  0  0  0  0
    7.7940    0.4639  -14.8593 C   0  0  0  0  0  0  0  0  0  0  0  0
    7.1923   -0.9593  -14.9130 C   0  0  2  0  0  0  0  0  0  0  0  0
    7.5594   -1.5007  -14.0317 H   0  0  0  0  0  0  0  0  0  0  0  0
    7.6167   -1.6725  -16.0959 N   0  0  0  0  0  0  0  0  0  0  0  0
    8.7818   -2.3452  -16.1842 C   0  0  0  0  0  0  0  0  0  0  0  0
    8.9235   -3.2542  -17.3888 C   0  0  0  0  0  0  0  0  0  0  0  0
    9.6611   -2.2635  -15.3371 O   0  0  0  0  0  0  0  0  0  0  0  0
    5.6547   -1.0444  -14.9255 C   0  0  0  0  0  0  0  0  0  0  0  0
    5.0505   -0.8283  -13.7473 N   0  0  0  0  0  0  0  0  0  0  0  0
    3.6199   -0.8902  -13.5928 C   0  0  0  0  0  0  0  0  0  0  0  0
    5.0534   -1.3572  -15.9470 O   0  0  0  0  0  0  0  0  0  0  0  0
    8.5373   -0.0560  -11.8557 C   0  0  0  0  0  0  0  0  0  0  0  0
    9.5018   -0.5712  -12.3987 O   0  0  0  0  0  0  0  0  0  0  0  0
    7.5588    3.2968  -10.5377 O   0  0  0  0  0  0  0  0  0  0  0  0
    6.3750    4.0174  -10.7381 C   0  0  0  0  0  0  0  0  0  0  0  0
    5.8087    4.4997   -9.4195 C   0  0  0  0  0  0  0  0  0  0  0  0
    6.6375    5.4188   -8.8548 F   0  0  0  0  0  0  0  0  0  0  0  0
    4.6234    5.1353   -9.6563 F   0  0  0  0  0  0  0  0  0  0  0  0
    5.3933   -2.9302  -11.3384 N   0  0  0  0  0  0  0  0  0  0  0  0
    4.3936   -3.7555  -11.6934 C   0  0  0  0  0  0  0  0  0  0  0  0
    4.4220   -4.7203  -12.5748 N   0  0  0  0  0  2  0  0  0  0  0  0
   11.2172   -5.8064  -15.2597 H   0  0  0  0  0  0  0  0  0  0  0  0
   10.6061   -5.4877  -13.6053 H   0  0  0  0  0  0  0  0  0  0  0  0
   10.4975   -4.2045  -14.8687 H   0  0  0  0  0  0  0  0  0  0  0  0
    8.8877   -3.8488  -13.3219 H   0  0  0  0  0  0  0  0  0  0  0  0
    5.1890   -7.2004  -16.5682 H   0  0  0  0  0  0  0  0  0  0  0  0
    5.5609   -8.4525  -15.3574 H   0  0  0  0  0  0  0  0  0  0  0  0
    7.2916   -9.4005  -16.9178 H   0  0  0  0  0  0  0  0  0  0  0  0
    6.8302   -8.2150  -18.1494 H   0  0  0  0  0  0  0  0  0  0  0  0
    4.4570   -9.0938  -18.0720 H   0  0  0  0  0  0  0  0  0  0  0  0
    4.9826  -10.3671  -16.9519 H   0  0  0  0  0  0  0  0  0  0  0  0
    6.5389  -12.1032  -17.8345 H   0  0  0  0  0  0  0  0  0  0  0  0
    7.7203  -10.9934  -18.5782 H   0  0  0  0  0  0  0  0  0  0  0  0
    6.9318  -13.3952  -19.7765 H   0  0  0  0  0  0  0  0  0  0  0  0
    7.4631  -12.0015  -20.7277 H   0  0  0  0  0  0  0  0  0  0  0  0
    4.7418  -13.0923  -20.7061 H   0  0  0  0  0  0  0  0  0  0  0  0
    5.3191  -11.6416  -21.5434 H   0  0  0  0  0  0  0  0  0  0  0  0
    4.0709  -11.8665  -18.7702 H   0  0  0  0  0  0  0  0  0  0  0  0
    3.8492  -10.5661  -19.9721 H   0  0  0  0  0  0  0  0  0  0  0  0
    4.8080   -6.4958  -14.3964 H   0  0  0  0  0  0  0  0  0  0  0  0
    8.4458   -2.3506  -12.1870 H   0  0  0  0  0  0  0  0  0  0  0  0
    5.8303   -0.9431   -9.9043 H   0  0  0  0  0  0  0  0  0  0  0  0
    9.1922    1.9923  -12.0670 H   0  0  0  0  0  0  0  0  0  0  0  0
    8.8830    0.3446  -14.7516 H   0  0  0  0  0  0  0  0  0  0  0  0
    7.6007    0.9772  -15.8141 H   0  0  0  0  0  0  0  0  0  0  0  0
    6.8554   -1.8381  -16.7514 H   0  0  0  0  0  0  0  0  0  0  0  0
    9.9295   -3.1297  -17.8110 H   0  0  0  0  0  0  0  0  0  0  0  0
    8.1703   -3.0671  -18.1662 H   0  0  0  0  0  0  0  0  0  0  0  0
    8.8315   -4.2955  -17.0418 H   0  0  0  0  0  0  0  0  0  0  0  0
    5.6008   -0.4040  -13.0036 H   0  0  0  0  0  0  0  0  0  0  0  0
    3.2304   -1.7793  -14.1081 H   0  0  0  0  0  0  0  0  0  0  0  0
    3.1175   -0.0007  -14.0082 H   0  0  0  0  0  0  0  0  0  0  0  0
    3.3887   -0.9646  -12.5227 H   0  0  0  0  0  0  0  0  0  0  0  0
    5.6074    3.4101  -11.2445 H   0  0  0  0  0  0  0  0  0  0  0  0
    6.5906    4.9034  -11.3619 H   0  0  0  0  0  0  0  0  0  0  0  0
    5.6537    3.6614   -8.7262 H   0  0  0  0  0  0  0  0  0  0  0  0
    3.4398   -3.5812  -11.1796 H   0  0  0  0  0  0  0  0  0  0  0  0
  1 49  1  0  0  0  0
  2  1  1  0  0  0  0
  2  3  1  0  0  0  0
  3  4  1  0  0  0  0
  4 51  1  0  0  0  0
  4 17  2  0  0  0  0
  5  3  2  0  0  0  0
  5 15  1  0  0  0  0
  6  5  1  0  0  0  0
  7  6  1  0  0  0  0
  7 53  1  0  0  0  0
  8 54  1  0  0  0  0
  8  7  1  0  0  0  0
  9  8  1  0  0  0  0
  9 57  1  0  0  0  0
 10 11  1  0  0  0  0
 10  9  1  0  0  0  0
 11 59  1  0  0  0  0
 11 58  1  0  0  0  0
 12 60  1  0  0  0  0
 12 11  1  0  0  0  0
 13 12  1  0  0  0  0
 13 14  1  0  0  0  0
 14 10  1  0  0  0  0
 14 64  1  0  0  0  0
 15 16  2  0  0  0  0
 16 17  1  0  0  0  0
 16 47  1  0  0  0  0
 17 18  1  0  0  0  0
 18 19  1  6  0  0  0
 18 45  1  0  0  0  0
 19 20  1  0  0  0  0
 20 21  2  0  0  0  0
 21 22  1  0  0  0  0
 21 68  1  0  0  0  0
 22 23  2  0  0  0  0
 24 40  1  6  0  0  0
 24 22  1  0  0  0  0
 25 69  1  6  0  0  0
 25 24  1  0  0  0  0
 26 25  1  0  0  0  0
 27 70  1  0  0  0  0
 27 26  1  0  0  0  0
 28 27  1  0  0  0  0
 28 29  1  1  0  0  0
 30 28  1  0  0  0  0
 31 30  1  0  0  0  0
 31 33  2  0  0  0  0
 32 75  1  0  0  0  0
 32 31  1  0  0  0  0
 34 28  1  0  0  0  0
 34 35  1  0  0  0  0
 35 36  1  0  0  0  0
 35 76  1  0  0  0  0
 36 79  1  0  0  0  0
 37 34  2  0  0  0  0
 38 25  1  0  0  0  0
 38 20  1  0  0  0  0
 39 38  2  0  0  0  0
 41 40  1  0  0  0  0
 41 42  1  0  0  0  0
 42 43  1  0  0  0  0
 42 82  1  0  0  0  0
 44 42  1  0  0  0  0
 46 45  2  0  0  0  0
 46 83  1  0  0  0  0
 47 46  1  0  0  0  0
 48  1  1  0  0  0  0
 50  1  1  0  0  0  0
 52  7  1  0  0  0  0
 55  8  1  0  0  0  0
 56  9  1  0  0  0  0
 61 12  1  0  0  0  0
 62 13  1  0  0  0  0
 63 13  1  0  0  0  0
 65 14  1  0  0  0  0
 66 15  1  0  0  0  0
 67 19  1  0  0  0  0
 71 27  1  0  0  0  0
 72 30  1  0  0  0  0
 73 32  1  0  0  0  0
 74 32  1  0  0  0  0
 77 36  1  0  0  0  0
 78 36  1  0  0  0  0
 80 41  1  0  0  0  0
 81 41  1  0  0  0  0
M  END
