-1 1
 OpenBabel05232413493D

 83 85  0  0  1  0  0  0  0  0999 V2000
    3.6158   -2.2921   -0.7211 C   0  0  0  0  0  0  0  0  0  0  0  0
    2.4592   -3.0374   -1.0350 O   0  0  0  0  0  0  0  0  0  0  0  0
    1.3029   -2.7009   -0.4461 C   0  0  0  0  0  0  0  0  0  0  0  0
    1.1345   -1.6892    0.4691 C   0  0  0  0  0  0  0  0  0  0  0  0
    0.1639   -3.4734   -0.8645 C   0  0  0  0  0  0  0  0  0  0  0  0
    0.4265   -4.3955   -1.8083 O   0  0  0  0  0  0  0  0  0  0  0  0
   -0.6433   -5.1162   -2.3646 C   0  0  0  0  0  0  0  0  0  0  0  0
   -0.0885   -6.0178   -3.4496 C   0  0  0  0  0  0  0  0  0  0  0  0
   -1.1639   -6.9097   -4.0572 C   0  0  0  0  0  0  0  0  0  0  0  0
   -0.6969   -7.6666   -5.1937 N   0  0  0  0  0  0  0  0  0  0  0  0
    0.3401   -8.6442   -4.9203 C   0  0  0  0  0  0  0  0  0  0  0  0
    0.4152   -9.4799   -6.2072 C   0  0  0  0  0  0  0  0  0  0  0  0
   -0.9578   -9.2666   -6.8876 C   0  0  0  0  0  0  0  0  0  0  0  0
   -1.7335   -8.3984   -5.8930 C   0  0  0  0  0  0  0  0  0  0  0  0
   -1.0752   -3.2275   -0.3250 C   0  0  0  0  0  0  0  0  0  0  0  0
   -1.2570   -2.1998    0.6385 C   0  0  0  0  0  0  0  0  0  0  0  0
   -0.1451   -1.4237    1.0281 C   0  0  0  0  0  0  0  0  0  0  0  0
   -0.4295   -0.3671    1.9576 C   0  0  1  0  0  3  0  0  0  0  0  0
    0.5938    0.4551    2.3551 N   0  0  0  0  0  0  0  0  0  0  0  0
    0.5582    1.7418    2.8256 C   0  0  0  0  0  0  0  0  0  0  0  0
   -0.5032    2.4345    3.3022 C   0  0  0  0  0  0  0  0  0  0  0  0
   -0.3847    3.8541    3.6051 C   0  0  0  0  0  0  0  0  0  0  0  0
   -1.3522    4.5340    3.9236 O   0  0  0  0  0  0  0  0  0  0  0  0
    0.9780    4.4829    3.5036 C   0  0  0  0  0  0  0  0  0  0  0  0
    2.0575    3.7678    3.1439 C   0  0  0  0  0  0  0  0  0  0  0  0
    1.1004    3.8026    0.2090 S   0  0  0  0  0  1  0  0  0  0  0  0
    0.7255    2.8223   -1.2947 C   0  0  0  0  0  0  0  0  0  0  0  0
    0.0626    1.4664   -0.9837 C   0  0  2  0  0  0  0  0  0  0  0  0
    0.6477    1.0291   -0.1582 H   0  0  0  0  0  0  0  0  0  0  0  0
    0.0555    0.5368   -2.0942 N   0  0  0  0  0  0  0  0  0  0  0  0
    1.1500   -0.1046   -2.5460 C   0  0  0  0  0  0  0  0  0  0  0  0
    0.8938   -1.1929   -3.5742 C   0  0  0  0  0  0  0  0  0  0  0  0
    2.2876    0.1523   -2.1727 O   0  0  0  0  0  0  0  0  0  0  0  0
   -1.4080    1.5523   -0.5282 C   0  0  0  0  0  0  0  0  0  0  0  0
   -1.6841    2.5137    0.3568 N   0  0  0  0  0  0  0  0  0  0  0  0
   -2.9956    2.6903    0.9184 C   0  0  0  0  0  0  0  0  0  0  0  0
   -2.2471    0.7622   -0.9607 O   0  0  0  0  0  0  0  0  0  0  0  0
    1.9452    2.3467    2.8032 C   0  0  0  0  0  0  0  0  0  0  0  0
    2.9041    1.6219    2.5976 O   0  0  0  0  0  0  0  0  0  0  0  0
    1.0908    5.7947    3.8107 O   0  0  0  0  0  0  0  0  0  0  0  0
    0.3980    6.7124    2.9894 C   0  0  0  0  0  0  0  0  0  0  0  0
   -0.6033    7.4939    3.8097 C   0  0  0  0  0  0  0  0  0  0  0  0
    0.0335    8.2307    4.7547 F   0  0  0  0  0  0  0  0  0  0  0  0
   -1.2488    8.3643    2.9892 F   0  0  0  0  0  0  0  0  0  0  0  0
   -1.6487   -0.1625    2.4112 N   0  0  0  0  0  0  0  0  0  0  0  0
   -2.6200   -0.9860    1.9712 C   0  0  0  0  0  0  0  0  0  0  0  0
   -2.5028   -1.9846    1.1395 N   0  0  0  0  0  2  0  0  0  0  0  0
    4.4344   -2.7466   -1.2922 H   0  0  0  0  0  0  0  0  0  0  0  0
    3.8497   -2.3599    0.3561 H   0  0  0  0  0  0  0  0  0  0  0  0
    3.4930   -1.2411   -1.0257 H   0  0  0  0  0  0  0  0  0  0  0  0
    1.9892   -1.0605    0.7154 H   0  0  0  0  0  0  0  0  0  0  0  0
   -1.3956   -4.4192   -2.7800 H   0  0  0  0  0  0  0  0  0  0  0  0
   -1.1485   -5.7153   -1.5828 H   0  0  0  0  0  0  0  0  0  0  0  0
    0.7191   -6.6233   -3.0093 H   0  0  0  0  0  0  0  0  0  0  0  0
    0.3648   -5.4033   -4.2427 H   0  0  0  0  0  0  0  0  0  0  0  0
   -2.0056   -6.2810   -4.3949 H   0  0  0  0  0  0  0  0  0  0  0  0
   -1.5775   -7.5844   -3.2677 H   0  0  0  0  0  0  0  0  0  0  0  0
    0.0623   -9.2910   -4.0542 H   0  0  0  0  0  0  0  0  0  0  0  0
    1.2957   -8.1602   -4.6708 H   0  0  0  0  0  0  0  0  0  0  0  0
    0.6164  -10.5375   -5.9846 H   0  0  0  0  0  0  0  0  0  0  0  0
    1.2293   -9.1242   -6.8541 H   0  0  0  0  0  0  0  0  0  0  0  0
   -1.4804  -10.2097   -7.1023 H   0  0  0  0  0  0  0  0  0  0  0  0
   -0.8362   -8.7337   -7.8414 H   0  0  0  0  0  0  0  0  0  0  0  0
   -2.3187   -9.0423   -5.1937 H   0  0  0  0  0  0  0  0  0  0  0  0
   -2.4461   -7.7106   -6.3750 H   0  0  0  0  0  0  0  0  0  0  0  0
   -1.9625   -3.7868   -0.6165 H   0  0  0  0  0  0  0  0  0  0  0  0
    1.5454    0.2089    2.0873 H   0  0  0  0  0  0  0  0  0  0  0  0
   -1.4880    1.9796    3.3698 H   0  0  0  0  0  0  0  0  0  0  0  0
    3.0431    4.2262    3.0702 H   0  0  0  0  0  0  0  0  0  0  0  0
    1.6634    2.5992   -1.8201 H   0  0  0  0  0  0  0  0  0  0  0  0
    0.0815    3.3976   -1.9813 H   0  0  0  0  0  0  0  0  0  0  0  0
   -0.8757    0.1709   -2.2872 H   0  0  0  0  0  0  0  0  0  0  0  0
    1.4930   -0.9760   -4.4698 H   0  0  0  0  0  0  0  0  0  0  0  0
   -0.1638   -1.2870   -3.8568 H   0  0  0  0  0  0  0  0  0  0  0  0
    1.2485   -2.1497   -3.1639 H   0  0  0  0  0  0  0  0  0  0  0  0
   -0.9008    3.1444    0.6103 H   0  0  0  0  0  0  0  0  0  0  0  0
   -3.3638    1.7459    1.3482 H   0  0  0  0  0  0  0  0  0  0  0  0
   -3.7265    3.0255    0.1635 H   0  0  0  0  0  0  0  0  0  0  0  0
   -2.9353    3.4394    1.7195 H   0  0  0  0  0  0  0  0  0  0  0  0
   -0.1157    6.2080    2.1571 H   0  0  0  0  0  0  0  0  0  0  0  0
    1.1276    7.4196    2.5622 H   0  0  0  0  0  0  0  0  0  0  0  0
   -1.3348    6.8370    4.2994 H   0  0  0  0  0  0  0  0  0  0  0  0
   -3.6202   -0.7855    2.3733 H   0  0  0  0  0  0  0  0  0  0  0  0
  1 49  1  0  0  0  0
  2  1  1  0  0  0  0
  2  3  1  0  0  0  0
  3  4  1  0  0  0  0
  4 51  1  0  0  0  0
  4 17  2  0  0  0  0
  5  3  2  0  0  0  0
  5 15  1  0  0  0  0
  6  5  1  0  0  0  0
  7  6  1  0  0  0  0
  7 53  1  0  0  0  0
  8 54  1  0  0  0  0
  8  7  1  0  0  0  0
  9  8  1  0  0  0  0
  9 57  1  0  0  0  0
 10 11  1  0  0  0  0
 10  9  1  0  0  0  0
 11 59  1  0  0  0  0
 11 58  1  0  0  0  0
 12 60  1  0  0  0  0
 12 11  1  0  0  0  0
 13 12  1  0  0  0  0
 13 14  1  0  0  0  0
 14 10  1  0  0  0  0
 14 64  1  0  0  0  0
 15 16  2  0  0  0  0
 16 17  1  0  0  0  0
 16 47  1  0  0  0  0
 17 18  1  0  0  0  0
 18 19  1  6  0  0  0
 18 45  1  0  0  0  0
 19 20  1  0  0  0  0
 20 21  2  0  0  0  0
 21 68  1  0  0  0  0
 21 22  1  0  0  0  0
 22 23  2  0  0  0  0
 24 22  1  0  0  0  0
 24 40  1  0  0  0  0
 25 24  2  0  0  0  0
 27 28  1  0  0  0  0
 27 26  1  0  0  0  0
 28 34  1  0  0  0  0
 28 29  1  1  0  0  0
 30 28  1  0  0  0  0
 31 33  2  0  0  0  0
 31 30  1  0  0  0  0
 32 75  1  0  0  0  0
 32 31  1  0  0  0  0
 34 35  1  0  0  0  0
 35 76  1  0  0  0  0
 35 36  1  0  0  0  0
 36 77  1  0  0  0  0
 36 79  1  0  0  0  0
 37 34  2  0  0  0  0
 38 20  1  0  0  0  0
 38 25  1  0  0  0  0
 39 38  2  0  0  0  0
 41 42  1  0  0  0  0
 41 40  1  0  0  0  0
 42 82  1  0  0  0  0
 42 43  1  0  0  0  0
 44 42  1  0  0  0  0
 46 83  1  0  0  0  0
 46 45  2  0  0  0  0
 47 46  1  0  0  0  0
 48  1  1  0  0  0  0
 50  1  1  0  0  0  0
 52  7  1  0  0  0  0
 55  8  1  0  0  0  0
 56  9  1  0  0  0  0
 61 12  1  0  0  0  0
 62 13  1  0  0  0  0
 63 13  1  0  0  0  0
 65 14  1  0  0  0  0
 66 15  1  0  0  0  0
 67 19  1  0  0  0  0
 69 25  1  0  0  0  0
 70 27  1  0  0  0  0
 71 27  1  0  0  0  0
 72 30  1  0  0  0  0
 73 32  1  0  0  0  0
 74 32  1  0  0  0  0
 78 36  1  0  0  0  0
 80 41  1  0  0  0  0
 81 41  1  0  0  0  0
M  END
