86
-1 1
C        -0.056623    5.293394    1.331231
C        -0.555980    4.620128    2.585416
C        -1.637661    5.041674    3.256517
S        -4.240736    3.501313    1.992091
C        -3.037782    3.119735    0.675878
C        -3.021539    1.665093    0.197501
H        -2.253760    1.578040   -0.589885
N        -4.253087    1.264081   -0.434874
C        -4.349714    1.002036   -1.757158
C        -5.670281    0.417727   -2.204150
O        -3.415717    1.149816   -2.534929
C        -2.637369    0.598979    1.236865
N        -2.233915    1.057121    2.434077
C        -1.854228    0.149884    3.487679
O        -2.647298   -0.597763    0.946402
C         0.125295    3.394937    3.114837
N         1.017600    2.812653    2.233817
C         1.677495    1.581242    2.346149
C         2.367789    1.095380    1.208956
C         2.459226    1.940444   -0.036663
C         2.962823   -0.173099    1.273371
C         3.595246   -0.860190    0.104987
C         4.977924   -1.053152    0.054302
C         5.572810   -1.884095   -0.903889
C         4.808633   -2.596115   -1.832340
C         5.368136   -3.525474   -2.851677
N         6.715847   -3.470902   -3.063762
O         4.665548   -4.307862   -3.477779
C         2.799632   -1.512568   -0.856781
C         3.415101   -2.417246   -1.768607
N         2.426719   -3.023968   -2.484472
H         2.626079   -3.759914   -3.151258
C         1.204054   -2.527627   -2.083075
C         1.383968   -1.573908   -1.111419
C         0.237334   -0.750798   -0.601967
C        -0.931623   -0.895756   -1.570132
C        -1.248384   -2.377367   -1.784059
C        -0.113843   -3.001216   -2.616990
C        -2.682149   -2.628255   -2.306864
C        -2.930682   -4.130235   -2.478468
O        -3.622917   -2.185444   -1.341140
C        -2.956839   -1.900714   -3.627841
C         2.925941   -0.911237    2.463651
C         2.289267   -0.397964    3.584727
C         1.658197    0.838887    3.533817
O        -0.097212    2.950168    4.226854
H        -0.635270    6.205819    1.135233
H        -0.171684    4.655956    0.436663
H         1.006989    5.575995    1.409990
H        -2.221228    5.900700    2.923320
H        -1.968766    4.516641    4.152176
H        -2.014927    3.356817    1.018635
H        -3.222079    3.740832   -0.215773
H        -5.078209    1.278510    0.154002
H        -6.514364    0.728670   -1.572317
H        -5.554627   -0.675853   -2.137143
H        -5.856652    0.695410   -3.248891
H        -2.629877    1.971829    2.699601
H        -1.434407    0.737340    4.313521
H        -1.086569   -0.548761    3.125011
H        -2.710207   -0.444807    3.850930
H         1.054304    3.236709    1.318862
H         2.991269    1.411527   -0.837220
H         3.000702    2.881257    0.161587
H         1.465868    2.209610   -0.435151
H         5.603886   -0.570429    0.808169
H         6.657647   -2.014355   -0.872958
H         7.261914   -2.681983   -2.752317
H         7.075304   -4.032349   -3.823818
H         0.526079    0.304491   -0.522725
H        -0.077087   -1.056984    0.409827
H        -0.679776   -0.424872   -2.535813
H        -1.805901   -0.367299   -1.188800
H        -1.224576   -2.858930   -0.788702
H        -0.214287   -2.716773   -3.679978
H        -0.149552   -4.102865   -2.580469
H        -2.666409   -4.672631   -1.557276
H        -2.357453   -4.552492   -3.318550
H        -4.000473   -4.296095   -2.673953
H        -3.226610   -1.612395   -0.659453
H        -2.250409   -2.202063   -4.418266
H        -2.910434   -0.811382   -3.490116
H        -3.972368   -2.150099   -3.973777
H         3.388024   -1.900222    2.487791
H         2.263138   -0.974109    4.512546
H         1.132307    1.243482    4.393483
