86
-1 1
C        -0.197678    5.473914    1.346790
C        -0.765507    4.576846    2.415957
C        -2.144917    4.757966    2.883049
S        -3.528782    3.772065    1.908577
C        -2.542872    2.990300    0.610875
C        -2.860097    1.547648    0.235286
H        -2.112767    1.316084   -0.543058
N        -4.138689    1.361352   -0.418235
C        -4.220611    1.159937   -1.760672
C        -5.510207    0.531768   -2.236768
O        -3.297505    1.410463   -2.519594
C        -2.693621    0.407574    1.256321
N        -1.915609    0.595821    2.318044
C        -1.626498   -0.495773    3.214769
O        -3.209047   -0.688966    1.002692
C        -0.138131    3.405208    2.839452
N         1.114483    3.069170    2.231826
C         1.724220    1.825502    2.341693
C         2.332687    1.230404    1.207538
C         2.327376    1.965375   -0.108378
C         2.905237   -0.046884    1.331553
C         3.505317   -0.795871    0.184095
C         4.892295   -0.938962    0.089220
C         5.490187   -1.762908   -0.872211
C         4.727965   -2.508157   -1.775455
C         5.290856   -3.411690   -2.814320
N         6.633225   -3.323888   -3.049803
O         4.597092   -4.204475   -3.438629
C         2.707189   -1.505832   -0.734439
C         3.331055   -2.379826   -1.669368
N         2.349194   -3.011192   -2.373271
H         2.561938   -3.725209   -3.059547
C         1.119685   -2.563339   -1.940028
C         1.287063   -1.625215   -0.951825
C         0.119145   -0.877944   -0.380151
C        -1.053135   -1.005811   -1.348601
C        -1.350303   -2.469146   -1.672788
C        -0.184539   -3.050267   -2.493476
C        -2.755574   -2.667352   -2.295685
C        -2.999390   -4.149342   -2.594749
O        -3.760916   -2.292465   -1.365648
C        -2.946693   -1.841802   -3.574526
C         2.898137   -0.713063    2.562370
C         2.321702   -0.108654    3.675157
C         1.743590    1.147814    3.573967
O        -0.633301    2.581434    3.655095
H        -0.732375    6.437104    1.324746
H        -0.271097    5.064302    0.314254
H         0.866886    5.718464    1.518323
H        -2.491760    5.797487    2.809772
H        -2.279870    4.374528    3.900854
H        -1.494640    3.052056    0.948019
H        -2.611412    3.574086   -0.319025
H        -4.881625    0.981990    0.154606
H        -6.379505    0.844828   -1.640858
H        -5.379317   -0.558487   -2.134495
H        -5.667513    0.779438   -3.293258
H        -1.572318    1.516347    2.650706
H        -0.879812   -0.142411    3.935965
H        -1.223481   -1.360182    2.664871
H        -2.529064   -0.833136    3.750338
H         1.321106    3.585252    1.389473
H         2.720721    1.342762   -0.922159
H         2.944777    2.879740   -0.064912
H         1.307453    2.279412   -0.389295
H         5.521437   -0.409761    0.808223
H         6.579952   -1.849557   -0.871836
H         7.166758   -2.526442   -2.738481
H         6.990025   -3.865720   -3.825073
H         0.368551    0.179378   -0.222008
H        -0.160270   -1.266476    0.614194
H        -0.825805   -0.453130   -2.275422
H        -1.946386   -0.547452   -0.926457
H        -1.382904   -3.013491   -0.710456
H        -0.270797   -2.745830   -3.552152
H        -0.203837   -4.152855   -2.483042
H        -2.799198   -4.759579   -1.700461
H        -2.372061   -4.513344   -3.422840
H        -4.054229   -4.291088   -2.872760
H        -3.434063   -1.737682   -0.634626
H        -2.206102   -2.099661   -4.348088
H        -2.882258   -0.763975   -3.368858
H        -3.946940   -2.044797   -3.987750
H         3.337547   -1.710564    2.631461
H         2.319015   -0.626351    4.637949
H         1.268699    1.622989    4.428749
