-1 1
 OpenBabel05232413493D

 82 85  0  0  1  0  0  0  0  0999 V2000
    2.1613    5.4352    0.5975 O   0  0  0  0  0  0  0  0  0  0  0  0
    1.1194    4.8162    0.4688 C   0  0  0  0  0  0  0  0  0  0  0  0
    1.0669    3.4511    0.3774 N   0  0  0  0  0  0  0  0  0  0  0  0
    2.1460    2.5790    0.6252 C   0  0  0  0  0  0  0  0  0  0  0  0
    2.2860    1.4428   -0.1975 C   0  0  0  0  0  0  0  0  0  0  0  0
    1.3811    1.2889   -1.3901 C   0  0  0  0  0  0  0  0  0  0  0  0
    3.3032    0.5180    0.1127 C   0  0  0  0  0  0  0  0  0  0  0  0
    3.5345   -0.7138   -0.6948 C   0  0  0  0  0  0  0  0  0  0  0  0
    4.7602   -0.8697   -1.3604 C   0  0  0  0  0  0  0  0  0  0  0  0
    5.0444   -1.9983   -2.1274 C   0  0  0  0  0  0  0  0  0  0  0  0
    4.1223   -3.0408   -2.2748 C   0  0  0  0  0  0  0  0  0  0  0  0
    4.3428   -4.2485   -3.1139 C   0  0  0  0  0  0  0  0  0  0  0  0
    5.4093   -4.2217   -3.9678 N   0  0  0  0  0  0  0  0  0  0  0  0
    3.6148   -5.2309   -3.0532 O   0  0  0  0  0  0  0  0  0  0  0  0
    2.6020   -1.7564   -0.7958 C   0  0  0  0  0  0  0  0  0  0  0  0
    2.9088   -2.9039   -1.5783 C   0  0  0  0  0  0  0  0  0  0  0  0
    1.8582   -3.7744   -1.5334 N   0  0  0  0  0  0  0  0  0  0  0  0
    1.8938   -4.6716   -2.0024 H   0  0  0  0  0  0  0  0  0  0  0  0
    0.8495   -3.2431   -0.7557 C   0  0  0  0  0  0  0  0  0  0  0  0
    1.2698   -1.9864   -0.2577 C   0  0  0  0  0  0  0  0  0  0  0  0
    0.3982   -1.2651    0.5647 C   0  0  0  0  0  0  0  0  0  0  0  0
   -0.8609   -1.7877    0.8312 C   0  0  0  0  0  0  0  0  0  0  0  0
   -1.2838   -3.0233    0.3105 C   0  0  0  0  0  0  0  0  0  0  0  0
   -2.7100   -3.5427    0.5205 C   0  0  0  0  0  0  0  0  0  0  0  0
   -3.5426   -3.2589   -0.7300 C   0  0  0  0  0  0  0  0  0  0  0  0
   -2.6863   -4.9612    0.6526 O   0  0  0  0  0  0  0  0  0  0  0  0
   -3.3915   -2.9317    1.7495 C   0  0  0  0  0  0  0  0  0  0  0  0
   -0.4089   -3.7736   -0.4749 C   0  0  0  0  0  0  0  0  0  0  0  0
    4.1789    0.7647    1.1779 C   0  0  0  0  0  0  0  0  0  0  0  0
    4.0501    1.9142    1.9496 C   0  0  0  0  0  0  0  0  0  0  0  0
    3.0310    2.8184    1.6791 C   0  0  0  0  0  0  0  0  0  0  0  0
   -0.1961    5.5340    0.4124 C   0  0  0  0  0  0  0  0  0  0  0  0
   -1.4370    4.9883   -0.2515 C   0  0  0  0  0  0  0  0  0  0  0  0
   -1.3761    5.0608    1.2389 C   0  0  0  0  0  0  0  0  0  0  0  0
   -2.7531    1.8825   -2.0621 S   0  0  0  0  0  1  0  0  0  0  0  0
   -2.5337    0.9086   -0.5344 C   0  0  0  0  0  0  0  0  0  0  0  0
   -3.2407    1.5073    0.7011 C   0  0  2  0  0  0  0  0  0  0  0  0
   -3.0693    2.5976    0.6852 H   0  0  0  0  0  0  0  0  0  0  0  0
   -2.7721    0.9572    1.9585 N   0  0  0  0  0  0  0  0  0  0  0  0
   -1.5469    1.1540    2.4671 C   0  0  0  0  0  0  0  0  0  0  0  0
   -1.2598    0.4721    3.7901 C   0  0  0  0  0  0  0  0  0  0  0  0
   -0.6727    1.8032    1.8994 O   0  0  0  0  0  0  0  0  0  0  0  0
   -4.7508    1.2300    0.6825 C   0  0  0  0  0  0  0  0  0  0  0  0
   -5.3821    1.6549   -0.4190 N   0  0  0  0  0  0  0  0  0  0  0  0
   -6.7670    1.3632   -0.6723 C   0  0  0  0  0  0  0  0  0  0  0  0
   -5.2940    0.6432    1.6208 O   0  0  0  0  0  0  0  0  0  0  0  0
    0.1570    2.9932    0.3703 H   0  0  0  0  0  0  0  0  0  0  0  0
    0.3560    1.0030   -1.1076 H   0  0  0  0  0  0  0  0  0  0  0  0
    1.7497    0.5292   -2.0900 H   0  0  0  0  0  0  0  0  0  0  0  0
    1.2881    2.2464   -1.9221 H   0  0  0  0  0  0  0  0  0  0  0  0
    5.5013   -0.0720   -1.2809 H   0  0  0  0  0  0  0  0  0  0  0  0
    6.0239   -2.0642   -2.6080 H   0  0  0  0  0  0  0  0  0  0  0  0
    5.8352   -3.3473   -4.2366 H   0  0  0  0  0  0  0  0  0  0  0  0
    5.4790   -4.9974   -4.6130 H   0  0  0  0  0  0  0  0  0  0  0  0
    0.6771   -0.2928    0.9752 H   0  0  0  0  0  0  0  0  0  0  0  0
   -1.5545   -1.1980    1.4254 H   0  0  0  0  0  0  0  0  0  0  0  0
   -3.0927   -3.7499   -1.6043 H   0  0  0  0  0  0  0  0  0  0  0  0
   -3.5895   -2.1787   -0.9260 H   0  0  0  0  0  0  0  0  0  0  0  0
   -4.5645   -3.6446   -0.5954 H   0  0  0  0  0  0  0  0  0  0  0  0
   -2.0782   -5.1676    1.3695 H   0  0  0  0  0  0  0  0  0  0  0  0
   -3.6133   -1.8628    1.6171 H   0  0  0  0  0  0  0  0  0  0  0  0
   -2.7672   -3.0483    2.6503 H   0  0  0  0  0  0  0  0  0  0  0  0
   -4.3446   -3.4535    1.9153 H   0  0  0  0  0  0  0  0  0  0  0  0
   -0.7222   -4.7393   -0.8757 H   0  0  0  0  0  0  0  0  0  0  0  0
    4.9637    0.0370    1.3980 H   0  0  0  0  0  0  0  0  0  0  0  0
    4.7386    2.0995    2.7774 H   0  0  0  0  0  0  0  0  0  0  0  0
    2.9101    3.7219    2.2752 H   0  0  0  0  0  0  0  0  0  0  0  0
   -0.0308    6.6124    0.3618 H   0  0  0  0  0  0  0  0  0  0  0  0
   -1.4252    4.0069   -0.7442 H   0  0  0  0  0  0  0  0  0  0  0  0
   -2.0630    5.7135   -0.7770 H   0  0  0  0  0  0  0  0  0  0  0  0
   -1.9568    5.8267    1.7596 H   0  0  0  0  0  0  0  0  0  0  0  0
   -1.2525    4.1218    1.7864 H   0  0  0  0  0  0  0  0  0  0  0  0
   -1.4674    0.8389   -0.2820 H   0  0  0  0  0  0  0  0  0  0  0  0
   -2.8885   -0.1288   -0.6657 H   0  0  0  0  0  0  0  0  0  0  0  0
   -3.5132    0.5059    2.4938 H   0  0  0  0  0  0  0  0  0  0  0  0
   -0.6007   -0.3877    3.5954 H   0  0  0  0  0  0  0  0  0  0  0  0
   -2.1648    0.1163    4.3015 H   0  0  0  0  0  0  0  0  0  0  0  0
   -0.7121    1.1702    4.4364 H   0  0  0  0  0  0  0  0  0  0  0  0
   -4.7555    1.9553   -1.1983 H   0  0  0  0  0  0  0  0  0  0  0  0
   -7.2425    1.0488    0.2660 H   0  0  0  0  0  0  0  0  0  0  0  0
   -6.8827    0.5519   -1.4110 H   0  0  0  0  0  0  0  0  0  0  0  0
   -7.2856    2.2542   -1.0592 H   0  0  0  0  0  0  0  0  0  0  0  0
  2  1  2  0  0  0  0
  3  2  1  0  0  0  0
  3  4  1  0  0  0  0
  4 31  1  0  0  0  0
  5  7  1  0  0  0  0
  5  4  2  0  0  0  0
  6 48  1  0  0  0  0
  6  5  1  0  0  0  0
  7 29  2  0  0  0  0
  8  7  1  0  0  0  0
  9 51  1  0  0  0  0
  9  8  2  0  0  0  0
 10  9  1  0  0  0  0
 11 10  2  0  0  0  0
 11 16  1  0  0  0  0
 12 14  2  0  0  0  0
 12 11  1  0  0  0  0
 13 12  1  0  0  0  0
 15  8  1  0  0  0  0
 15 20  1  0  0  0  0
 16 17  1  0  0  0  0
 16 15  2  0  0  0  0
 17 19  1  0  0  0  0
 18 17  1  0  0  0  0
 19 28  2  0  0  0  0
 19 20  1  0  0  0  0
 20 21  2  0  0  0  0
 21 22  1  0  0  0  0
 21 55  1  0  0  0  0
 22 56  1  0  0  0  0
 23 24  1  0  0  0  0
 23 22  2  0  0  0  0
 24 26  1  0  0  0  0
 24 27  1  0  0  0  0
 25 59  1  0  0  0  0
 25 24  1  0  0  0  0
 26 60  1  0  0  0  0
 27 63  1  0  0  0  0
 27 62  1  0  0  0  0
 28 23  1  0  0  0  0
 29 65  1  0  0  0  0
 29 30  1  0  0  0  0
 30 66  1  0  0  0  0
 31 30  2  0  0  0  0
 31 67  1  0  0  0  0
 32  2  1  0  0  0  0
 32 34  1  0  0  0  0
 33 32  1  0  0  0  0
 33 34  1  0  0  0  0
 34 71  1  0  0  0  0
 34 72  1  0  0  0  0
 35 36  1  0  0  0  0
 36 73  1  0  0  0  0
 36 37  1  0  0  0  0
 37 38  1  1  0  0  0
 37 39  1  0  0  0  0
 39 40  1  0  0  0  0
 39 75  1  0  0  0  0
 40 41  1  0  0  0  0
 41 77  1  0  0  0  0
 41 78  1  0  0  0  0
 42 40  2  0  0  0  0
 43 37  1  0  0  0  0
 43 46  2  0  0  0  0
 44 43  1  0  0  0  0
 45 44  1  0  0  0  0
 45 80  1  0  0  0  0
 47  3  1  0  0  0  0
 49  6  1  0  0  0  0
 50  6  1  0  0  0  0
 52 10  1  0  0  0  0
 53 13  1  0  0  0  0
 54 13  1  0  0  0  0
 57 25  1  0  0  0  0
 58 25  1  0  0  0  0
 61 27  1  0  0  0  0
 64 28  1  0  0  0  0
 68 32  1  0  0  0  0
 69 33  1  0  0  0  0
 70 33  1  0  0  0  0
 74 36  1  0  0  0  0
 76 41  1  0  0  0  0
 79 44  1  0  0  0  0
 81 45  1  0  0  0  0
 82 45  1  0  0  0  0
M  END
