-1 1
 OpenBabel05192410563D

 82 85  0  0  1  0  0  0  0  0999 V2000
    1.8090    5.5930    0.8249 O   0  0  0  0  0  0  0  0  0  0  0  0
    0.9762    5.0207    0.1025 C   0  0  0  0  0  0  0  0  0  0  0  0
    1.2300    3.6284   -0.2646 N   0  0  0  0  0  0  0  0  0  0  0  0
    2.1366    2.7491    0.2603 C   0  0  0  0  0  0  0  0  0  0  0  0
    2.4046    1.5326   -0.4325 C   0  0  0  0  0  0  0  0  0  0  0  0
    1.7269    1.2972   -1.7574 C   0  0  0  0  0  0  0  0  0  0  0  0
    3.3146    0.6125    0.1182 C   0  0  0  0  0  0  0  0  0  0  0  0
    3.6736   -0.6551   -0.5789 C   0  0  0  0  0  0  0  0  0  0  0  0
    4.9961   -0.8449   -1.0101 C   0  0  0  0  0  0  0  0  0  0  0  0
    5.4009   -2.0030   -1.6717 C   0  0  0  0  0  0  0  0  0  0  0  0
    4.5105   -3.0482   -1.9468 C   0  0  0  0  0  0  0  0  0  0  0  0
    4.8621   -4.2903   -2.6819 C   0  0  0  0  0  0  0  0  0  0  0  0
    6.0810   -4.3244   -3.2966 N   0  0  0  0  0  0  0  0  0  0  0  0
    4.1067   -5.2536   -2.7427 O   0  0  0  0  0  0  0  0  0  0  0  0
    2.7684   -1.7032   -0.8067 C   0  0  0  0  0  0  0  0  0  0  0  0
    3.1944   -2.8772   -1.4824 C   0  0  0  0  0  0  0  0  0  0  0  0
    2.1426   -3.7456   -1.5870 N   0  0  0  0  0  0  0  0  0  0  0  0
    2.2586   -4.6633   -2.0007 H   0  0  0  0  0  0  0  0  0  0  0  0
    1.0280   -3.1926   -0.9952 C   0  0  0  0  0  0  0  0  0  0  0  0
    1.3651   -1.9150   -0.4883 C   0  0  0  0  0  0  0  0  0  0  0  0
    0.3796   -1.1672    0.1670 C   0  0  0  0  0  0  0  0  0  0  0  0
   -0.8967   -1.7034    0.2820 C   0  0  0  0  0  0  0  0  0  0  0  0
   -1.2282   -2.9757   -0.2238 C   0  0  0  0  0  0  0  0  0  0  0  0
   -2.6619   -3.5069   -0.1150 C   0  0  0  0  0  0  0  0  0  0  0  0
   -3.5120   -2.9105   -1.2367 C   0  0  0  0  0  0  0  0  0  0  0  0
   -2.6918   -4.9118   -0.3221 O   0  0  0  0  0  0  0  0  0  0  0  0
   -3.2826   -3.1951    1.2531 C   0  0  0  0  0  0  0  0  0  0  0  0
   -0.2552   -3.7316   -0.8727 C   0  0  0  0  0  0  0  0  0  0  0  0
    3.9680    0.8860    1.3264 C   0  0  0  0  0  0  0  0  0  0  0  0
    3.7017    2.0823    1.9911 C   0  0  0  0  0  0  0  0  0  0  0  0
    2.8078    3.0064    1.4768 C   0  0  0  0  0  0  0  0  0  0  0  0
   -0.1925    5.5389   -0.4582 C   0  0  0  0  0  3  0  0  0  0  0  0
   -1.2469    4.7292   -1.1530 C   0  0  0  0  0  0  0  0  0  0  0  0
   -2.0159    3.8428   -0.1609 C   0  0  0  0  0  0  0  0  0  0  0  0
   -3.2717    2.7503   -0.9635 S   0  0  0  0  0  0  0  0  0  0  0  0
   -3.1218    1.2738    0.0853 C   0  0  0  0  0  0  0  0  0  0  0  0
   -3.5482    1.4636    1.5560 C   0  0  2  0  0  0  0  0  0  0  0  0
   -3.1526    2.4373    1.8949 H   0  0  0  0  0  0  0  0  0  0  0  0
   -3.0150    0.4241    2.4022 N   0  0  0  0  0  0  0  0  0  0  0  0
   -1.7016    0.4061    2.7656 C   0  0  0  0  0  0  0  0  0  0  0  0
   -1.3033   -0.6869    3.7334 C   0  0  0  0  0  0  0  0  0  0  0  0
   -0.8907    1.1824    2.2963 O   0  0  0  0  0  0  0  0  0  0  0  0
   -5.0711    1.4529    1.7557 C   0  0  0  0  0  0  0  0  0  0  0  0
   -5.7482    2.3740    1.0406 N   0  0  0  0  0  0  0  0  0  0  0  0
   -7.1845    2.4831    1.0727 C   0  0  0  0  0  0  0  0  0  0  0  0
   -5.5996    0.6584    2.5216 O   0  0  0  0  0  0  0  0  0  0  0  0
    0.7267    3.3085   -1.0779 H   0  0  0  0  0  0  0  0  0  0  0  0
    0.6353    1.1676   -1.6429 H   0  0  0  0  0  0  0  0  0  0  0  0
    2.1062    0.4031   -2.2672 H   0  0  0  0  0  0  0  0  0  0  0  0
    1.8797    2.1577   -2.4314 H   0  0  0  0  0  0  0  0  0  0  0  0
    5.7182   -0.0473   -0.8257 H   0  0  0  0  0  0  0  0  0  0  0  0
    6.4509   -2.0874   -1.9643 H   0  0  0  0  0  0  0  0  0  0  0  0
    6.6015   -3.4788   -3.4744 H   0  0  0  0  0  0  0  0  0  0  0  0
    6.2660   -5.1296   -3.8791 H   0  0  0  0  0  0  0  0  0  0  0  0
    0.5996   -0.1838    0.5896 H   0  0  0  0  0  0  0  0  0  0  0  0
   -1.6694   -1.1131    0.7705 H   0  0  0  0  0  0  0  0  0  0  0  0
   -3.0842   -3.1790   -2.2128 H   0  0  0  0  0  0  0  0  0  0  0  0
   -3.5375   -1.8147   -1.1583 H   0  0  0  0  0  0  0  0  0  0  0  0
   -4.5397   -3.3001   -1.1804 H   0  0  0  0  0  0  0  0  0  0  0  0
   -2.1394   -5.3125    0.3569 H   0  0  0  0  0  0  0  0  0  0  0  0
   -3.4110   -2.1167    1.4206 H   0  0  0  0  0  0  0  0  0  0  0  0
   -2.6488   -3.5872    2.0650 H   0  0  0  0  0  0  0  0  0  0  0  0
   -4.2707   -3.6739    1.3159 H   0  0  0  0  0  0  0  0  0  0  0  0
   -0.5001   -4.7110   -1.2860 H   0  0  0  0  0  0  0  0  0  0  0  0
    4.6686    0.1562    1.7388 H   0  0  0  0  0  0  0  0  0  0  0  0
    4.2048    2.2989    2.9379 H   0  0  0  0  0  0  0  0  0  0  0  0
    2.6092    3.9608    1.9610 H   0  0  0  0  0  0  0  0  0  0  0  0
   -0.4023    6.5860   -0.2294 H   0  0  0  0  0  0  0  0  0  0  0  0
   -0.8617    4.0712   -1.9635 H   0  0  0  0  0  0  0  0  0  0  0  0
   -1.9617    5.4003   -1.6618 H   0  0  0  0  0  0  0  0  0  0  0  0
   -2.5138    4.4745    0.5887 H   0  0  0  0  0  0  0  0  0  0  0  0
   -1.3136    3.1799    0.3670 H   0  0  0  0  0  0  0  0  0  0  0  0
   -2.0660    0.9741    0.0772 H   0  0  0  0  0  0  0  0  0  0  0  0
   -3.7079    0.4712   -0.3879 H   0  0  0  0  0  0  0  0  0  0  0  0
   -3.7210   -0.0978    2.9149 H   0  0  0  0  0  0  0  0  0  0  0  0
   -0.7940   -1.4767    3.1605 H   0  0  0  0  0  0  0  0  0  0  0  0
   -2.1565   -1.1276    4.2677 H   0  0  0  0  0  0  0  0  0  0  0  0
   -0.5804   -0.2750    4.4488 H   0  0  0  0  0  0  0  0  0  0  0  0
   -5.2133    2.9149    0.3572 H   0  0  0  0  0  0  0  0  0  0  0  0
   -7.5625    1.8207    1.8614 H   0  0  0  0  0  0  0  0  0  0  0  0
   -7.6354    2.1812    0.1135 H   0  0  0  0  0  0  0  0  0  0  0  0
   -7.4946    3.5161    1.2932 H   0  0  0  0  0  0  0  0  0  0  0  0
  2  1  2  0  0  0  0
  3  2  1  0  0  0  0
  3  4  1  0  0  0  0
  4 31  1  0  0  0  0
  5  7  1  0  0  0  0
  5  4  2  0  0  0  0
  6 48  1  0  0  0  0
  6  5  1  0  0  0  0
  7 29  2  0  0  0  0
  8  7  1  0  0  0  0
  9 51  1  0  0  0  0
  9  8  2  0  0  0  0
 10  9  1  0  0  0  0
 11 10  2  0  0  0  0
 11 16  1  0  0  0  0
 12 11  1  0  0  0  0
 13 12  1  0  0  0  0
 14 12  2  0  0  0  0
 15  8  1  0  0  0  0
 15 20  1  0  0  0  0
 16 15  2  0  0  0  0
 17 16  1  0  0  0  0
 17 19  1  0  0  0  0
 18 17  1  0  0  0  0
 19 28  2  0  0  0  0
 19 20  1  0  0  0  0
 20 21  2  0  0  0  0
 21 22  1  0  0  0  0
 21 55  1  0  0  0  0
 22 56  1  0  0  0  0
 23 24  1  0  0  0  0
 23 22  2  0  0  0  0
 24 27  1  0  0  0  0
 25 59  1  0  0  0  0
 25 58  1  0  0  0  0
 25 24  1  0  0  0  0
 26 24  1  0  0  0  0
 26 60  1  0  0  0  0
 27 63  1  0  0  0  0
 27 61  1  0  0  0  0
 27 62  1  0  0  0  0
 28 23  1  0  0  0  0
 29 65  1  0  0  0  0
 29 30  1  0  0  0  0
 30 66  1  0  0  0  0
 31 67  1  0  0  0  0
 31 30  2  0  0  0  0
 32 68  1  0  0  0  0
 32  2  1  0  0  0  0
 33 32  1  0  0  0  0
 33 34  1  0  0  0  0
 34 72  1  0  0  0  0
 34 71  1  0  0  0  0
 35 34  1  0  0  0  0
 35 36  1  0  0  0  0
 36 37  1  0  0  0  0
 37 43  1  0  0  0  0
 37 38  1  1  0  0  0
 37 39  1  0  0  0  0
 39 40  1  0  0  0  0
 39 75  1  0  0  0  0
 40 41  1  0  0  0  0
 41 77  1  0  0  0  0
 41 78  1  0  0  0  0
 42 40  2  0  0  0  0
 43 46  2  0  0  0  0
 44 45  1  0  0  0  0
 44 43  1  0  0  0  0
 45 82  1  0  0  0  0
 45 80  1  0  0  0  0
 47  3  1  0  0  0  0
 49  6  1  0  0  0  0
 50  6  1  0  0  0  0
 52 10  1  0  0  0  0
 53 13  1  0  0  0  0
 54 13  1  0  0  0  0
 57 25  1  0  0  0  0
 64 28  1  0  0  0  0
 69 33  1  0  0  0  0
 70 33  1  0  0  0  0
 73 36  1  0  0  0  0
 74 36  1  0  0  0  0
 76 41  1  0  0  0  0
 79 44  1  0  0  0  0
 81 45  1  0  0  0  0
M  END
