-1 1
 OpenBabel05232414493D

 69 70  0  0  1  0  0  0  0  0999 V2000
    8.6473    9.5395   -3.3164 O   0  0  0  0  0  0  0  0  0  0  0  0
    7.5059    9.8145   -2.9574 C   0  0  0  0  0  0  0  0  0  0  0  0
    7.0954    9.3596   -1.6386 N   0  0  0  0  0  0  0  0  0  0  0  0
    5.9526    8.6114   -1.3887 C   0  0  0  0  0  0  0  0  0  0  0  0
    5.1398    8.1126   -2.4274 C   0  0  0  0  0  0  0  0  0  0  0  0
    4.0159    7.3298   -2.1627 C   0  0  0  0  0  0  0  0  0  0  0  0
    3.1879    6.8443   -3.3002 C   0  0  0  0  0  0  0  0  0  0  0  0
    3.7915    6.0588   -4.2877 C   0  0  0  0  0  0  0  0  0  0  0  0
    3.0883    5.5890   -5.3996 C   0  0  0  0  0  0  0  0  0  0  0  0
    1.7408    5.9006   -5.5918 C   0  0  0  0  0  0  0  0  0  0  0  0
    0.9437    5.4911   -6.7759 C   0  0  0  0  0  0  0  0  0  0  0  0
    1.6364    4.9932   -7.8441 N   0  0  0  0  0  0  0  0  0  0  0  0
   -0.2760    5.5975   -6.8187 O   0  0  0  0  0  0  0  0  0  0  0  0
    1.8216    7.1642   -3.4472 C   0  0  0  0  0  0  0  0  0  0  0  0
    1.1344    6.6888   -4.5977 C   0  0  0  0  0  0  0  0  0  0  0  0
   -0.1288    7.1900   -4.5646 N   0  0  0  0  0  0  0  0  0  0  0  0
   -0.8158    6.9698   -5.2751 H   0  0  0  0  0  0  0  0  0  0  0  0
   -0.2874    7.9846   -3.4508 C   0  0  0  0  0  0  0  0  0  0  0  0
   -1.5645    8.7322   -3.2632 C   0  0  0  0  0  0  0  0  0  0  0  0
    0.8782    7.9890   -2.7181 C   0  0  0  0  0  0  0  0  0  0  0  0
    1.1107    8.7472   -1.4477 C   0  0  0  0  0  0  0  0  0  0  0  0
    3.6974    6.9808   -0.8439 C   0  0  0  0  0  0  0  0  0  0  0  0
    4.4932    7.4591    0.1895 C   0  0  0  0  0  0  0  0  0  0  0  0
    5.5972    8.2687   -0.0668 C   0  0  0  0  0  0  0  0  0  0  0  0
    8.1340    9.3741   -0.6328 C   0  0  0  0  0  0  0  0  0  0  0  0
    6.6183   10.6539   -3.6991 C   0  0  0  0  0  3  0  0  0  0  0  0
    5.4577   11.2689   -3.2351 C   0  0  0  0  0  3  0  0  0  0  0  0
    3.4448   10.3450   -3.9002 S   0  0  0  0  0  1  0  0  0  0  0  0
    2.6732   11.7990   -4.6872 C   0  0  0  0  0  0  0  0  0  0  0  0
    1.1481   11.6695   -4.8048 C   0  0  2  0  0  0  0  0  0  0  0  0
    0.7387   12.6083   -5.2114 H   0  0  0  0  0  0  0  0  0  0  0  0
    0.5383   11.5198   -3.5058 N   0  0  0  0  0  0  0  0  0  0  0  0
   -0.2743   12.4596   -2.9587 C   0  0  0  0  0  0  0  0  0  0  0  0
   -0.7270   12.1499   -1.5417 C   0  0  0  0  0  0  0  0  0  0  0  0
   -0.6397   13.4634   -3.5435 O   0  0  0  0  0  0  0  0  0  0  0  0
    0.6162   10.5896   -5.7701 C   0  0  0  0  0  0  0  0  0  0  0  0
    1.5359    9.7889   -6.3556 N   0  0  0  0  0  0  0  0  0  0  0  0
    1.1432    8.8224   -7.3480 C   0  0  0  0  0  0  0  0  0  0  0  0
   -0.5769   10.5233   -6.0259 O   0  0  0  0  0  0  0  0  0  0  0  0
    5.3810    8.3621   -3.4613 H   0  0  0  0  0  0  0  0  0  0  0  0
    4.8466    5.8020   -4.1736 H   0  0  0  0  0  0  0  0  0  0  0  0
    3.6136    4.9483   -6.1126 H   0  0  0  0  0  0  0  0  0  0  0  0
    2.6301    5.1443   -7.9333 H   0  0  0  0  0  0  0  0  0  0  0  0
    1.1012    4.8361   -8.6874 H   0  0  0  0  0  0  0  0  0  0  0  0
   -2.4340    8.0809   -3.4444 H   0  0  0  0  0  0  0  0  0  0  0  0
   -1.6113    9.5750   -3.9738 H   0  0  0  0  0  0  0  0  0  0  0  0
   -1.6454    9.1250   -2.2417 H   0  0  0  0  0  0  0  0  0  0  0  0
    0.2581    9.4052   -1.2253 H   0  0  0  0  0  0  0  0  0  0  0  0
    2.0204    9.3639   -1.5237 H   0  0  0  0  0  0  0  0  0  0  0  0
    1.2422    8.0828   -0.5808 H   0  0  0  0  0  0  0  0  0  0  0  0
    2.8381    6.3381   -0.6429 H   0  0  0  0  0  0  0  0  0  0  0  0
    4.2553    7.1992    1.2247 H   0  0  0  0  0  0  0  0  0  0  0  0
    6.1876    8.6360    0.7723 H   0  0  0  0  0  0  0  0  0  0  0  0
    9.0558    9.7253   -1.1089 H   0  0  0  0  0  0  0  0  0  0  0  0
    8.3250    8.3655   -0.2257 H   0  0  0  0  0  0  0  0  0  0  0  0
    7.8824   10.0410    0.2117 H   0  0  0  0  0  0  0  0  0  0  0  0
    6.9767   10.8800   -4.7064 H   0  0  0  0  0  0  0  0  0  0  0  0
    5.1595   12.2108   -3.7025 H   0  0  0  0  0  0  0  0  0  0  0  0
    5.2239   11.2059   -2.1692 H   0  0  0  0  0  0  0  0  0  0  0  0
    3.0955   11.9763   -5.6901 H   0  0  0  0  0  0  0  0  0  0  0  0
    2.8769   12.6992   -4.0836 H   0  0  0  0  0  0  0  0  0  0  0  0
    0.9235   10.7770   -2.9308 H   0  0  0  0  0  0  0  0  0  0  0  0
   -1.5291   11.3967   -1.5685 H   0  0  0  0  0  0  0  0  0  0  0  0
   -1.1217   13.0680   -1.0910 H   0  0  0  0  0  0  0  0  0  0  0  0
    0.0935   11.7535   -0.9263 H   0  0  0  0  0  0  0  0  0  0  0  0
    2.4439    9.6971   -5.8913 H   0  0  0  0  0  0  0  0  0  0  0  0
    1.9784    8.1328   -7.5268 H   0  0  0  0  0  0  0  0  0  0  0  0
    0.8803    9.3126   -8.3003 H   0  0  0  0  0  0  0  0  0  0  0  0
    0.2669    8.2433   -7.0237 H   0  0  0  0  0  0  0  0  0  0  0  0
  1  2  2  0  0  0  0
  2  3  1  0  0  0  0
  3  4  1  0  0  0  0
  3 25  1  0  0  0  0
  4 24  1  0  0  0  0
  5  6  1  0  0  0  0
  5  4  2  0  0  0  0
  6 22  2  0  0  0  0
  7  6  1  0  0  0  0
  8 41  1  0  0  0  0
  8  7  2  0  0  0  0
  9  8  1  0  0  0  0
 10  9  2  0  0  0  0
 10 15  1  0  0  0  0
 11 10  1  0  0  0  0
 12 11  1  0  0  0  0
 13 11  2  0  0  0  0
 14  7  1  0  0  0  0
 14 20  1  0  0  0  0
 15 16  1  0  0  0  0
 15 14  2  0  0  0  0
 16 18  1  0  0  0  0
 17 16  1  0  0  0  0
 18 19  1  0  0  0  0
 18 20  2  0  0  0  0
 19 47  1  0  0  0  0
 20 21  1  0  0  0  0
 21 48  1  0  0  0  0
 21 50  1  0  0  0  0
 22 51  1  0  0  0  0
 22 23  1  0  0  0  0
 23 52  1  0  0  0  0
 24 23  2  0  0  0  0
 24 53  1  0  0  0  0
 25 55  1  0  0  0  0
 25 56  1  0  0  0  0
 26 27  1  0  0  0  0
 26  2  1  0  0  0  0
 27 59  1  0  0  0  0
 29 61  1  0  0  0  0
 29 28  1  0  0  0  0
 30 31  1  6  0  0  0
 30 29  1  0  0  0  0
 30 32  1  0  0  0  0
 32 33  1  0  0  0  0
 32 62  1  0  0  0  0
 33 34  1  0  0  0  0
 34 64  1  0  0  0  0
 34 65  1  0  0  0  0
 35 33  2  0  0  0  0
 36 30  1  0  0  0  0
 37 66  1  0  0  0  0
 37 36  1  0  0  0  0
 38 69  1  0  0  0  0
 38 37  1  0  0  0  0
 39 36  2  0  0  0  0
 40  5  1  0  0  0  0
 42  9  1  0  0  0  0
 43 12  1  0  0  0  0
 44 12  1  0  0  0  0
 45 19  1  0  0  0  0
 46 19  1  0  0  0  0
 49 21  1  0  0  0  0
 54 25  1  0  0  0  0
 57 26  1  0  0  0  0
 58 27  1  0  0  0  0
 60 29  1  0  0  0  0
 63 34  1  0  0  0  0
 67 38  1  0  0  0  0
 68 38  1  0  0  0  0
M  END
