-1 1
 OpenBabel05232414493D

 83 85  0  0  1  0  0  0  0  0999 V2000
    5.4657   -9.5665   -2.3731 O   0  0  0  0  0  0  0  0  0  0  0  0
    5.0693   -9.2964   -1.2353 C   0  0  0  0  0  0  0  0  0  0  0  0
    4.8309   -7.9346   -0.9504 N   0  0  0  0  0  0  0  0  0  0  0  0
    3.6797   -7.4270   -0.2418 C   0  0  0  0  0  0  0  0  0  0  0  0
    2.3371   -7.6053   -0.9317 C   0  0  0  0  0  0  0  0  0  0  0  0
    2.2207   -8.3748   -2.0858 C   0  0  0  0  0  0  0  0  0  0  0  0
    0.9700   -8.7757   -2.5752 C   0  0  0  0  0  0  0  0  0  0  0  0
    0.8807   -9.9010   -3.5383 C   0  0  0  0  0  0  0  0  0  0  0  0
    1.7560  -10.9742   -3.3478 C   0  0  0  0  0  0  0  0  0  0  0  0
    1.5171  -12.2330   -3.9046 C   0  0  0  0  0  0  0  0  0  0  0  0
    0.4054  -12.4658   -4.7047 C   0  0  0  0  0  0  0  0  0  0  0  0
   -0.1030  -13.8255   -5.0354 C   0  0  0  0  0  0  0  0  0  0  0  0
    0.1904  -14.7702   -4.1059 N   0  0  0  0  0  0  0  0  0  0  0  0
   -0.7875  -14.0514   -6.0295 O   0  0  0  0  0  0  0  0  0  0  0  0
   -0.1576  -10.0609   -4.4860 C   0  0  0  0  0  0  0  0  0  0  0  0
   -0.3619  -11.3448   -5.0545 C   0  0  0  0  0  0  0  0  0  0  0  0
   -1.4478  -11.2822   -5.8822 N   0  0  0  0  0  0  0  0  0  0  0  0
   -1.7499  -12.0847   -6.4225 H   0  0  0  0  0  0  0  0  0  0  0  0
   -1.9237   -9.9936   -5.8981 C   0  0  0  0  0  0  0  0  0  0  0  0
   -1.1764   -9.2081   -5.0562 C   0  0  0  0  0  0  0  0  0  0  0  0
   -1.4170   -7.7317   -4.9521 C   0  0  0  0  0  0  0  0  0  0  0  0
   -2.2407   -7.2411   -6.1463 C   0  0  0  0  0  0  0  0  0  0  0  0
   -3.4868   -8.1099   -6.3868 C   0  0  2  0  0  0  0  0  0  0  0  0
   -3.0581   -9.5416   -6.7563 C   0  0  0  0  0  0  0  0  0  0  0  0
   -4.4543   -7.5106   -7.4367 C   0  0  0  0  0  0  0  0  0  0  0  0
   -4.9962   -6.1484   -6.9855 C   0  0  0  0  0  0  0  0  0  0  0  0
   -3.6993   -7.3511   -8.6294 O   0  0  0  0  0  0  0  0  0  0  0  0
   -5.6375   -8.4503   -7.7034 C   0  0  0  0  0  0  0  0  0  0  0  0
   -0.1840   -8.2952   -1.9441 C   0  0  0  0  0  0  0  0  0  0  0  0
   -0.0776   -7.4498   -0.8388 C   0  0  0  0  0  0  0  0  0  0  0  0
    1.1722   -7.1251   -0.3208 C   0  0  0  0  0  0  0  0  0  0  0  0
    4.8950  -10.3056   -0.2188 C   0  0  0  0  0  3  0  0  0  0  0  0
    4.7690  -10.1329    1.1591 C   0  0  0  0  0  3  0  0  0  0  0  0
    2.5773  -10.1221    1.9723 S   0  0  0  0  0  1  0  0  0  0  0  0
    1.7972  -10.6958    0.4566 C   0  0  0  0  0  0  0  0  0  0  0  0
    1.4674  -12.2012    0.4292 C   0  0  2  0  0  0  0  0  0  0  0  0
    0.9322  -12.4802    1.3528 H   0  0  0  0  0  0  0  0  0  0  0  0
    2.6881  -12.9536    0.4005 N   0  0  0  0  0  0  0  0  0  0  0  0
    2.8306  -14.1622    0.9958 C   0  0  0  0  0  0  0  0  0  0  0  0
    4.2032  -14.7892    0.8211 C   0  0  0  0  0  0  0  0  0  0  0  0
    1.9372  -14.7231    1.6033 O   0  0  0  0  0  0  0  0  0  0  0  0
    0.5377  -12.6477   -0.7216 C   0  0  0  0  0  0  0  0  0  0  0  0
   -0.5619  -11.8749   -0.8897 N   0  0  0  0  0  0  0  0  0  0  0  0
   -1.5929  -12.1332   -1.8614 C   0  0  0  0  0  0  0  0  0  0  0  0
    0.7496  -13.6589   -1.3766 O   0  0  0  0  0  0  0  0  0  0  0  0
    5.0405   -7.4143   -1.7974 H   0  0  0  0  0  0  0  0  0  0  0  0
    3.8461   -6.3597   -0.0173 H   0  0  0  0  0  0  0  0  0  0  0  0
    3.5742   -7.9353    0.7294 H   0  0  0  0  0  0  0  0  0  0  0  0
    3.1215   -8.7545   -2.5712 H   0  0  0  0  0  0  0  0  0  0  0  0
    2.5902  -10.8678   -2.6516 H   0  0  0  0  0  0  0  0  0  0  0  0
    2.1691  -13.0611   -3.6254 H   0  0  0  0  0  0  0  0  0  0  0  0
    0.4690  -14.4939   -3.1590 H   0  0  0  0  0  0  0  0  0  0  0  0
   -0.2239  -15.6830   -4.2421 H   0  0  0  0  0  0  0  0  0  0  0  0
   -0.4588   -7.1912   -4.9037 H   0  0  0  0  0  0  0  0  0  0  0  0
   -1.9441   -7.4768   -4.0155 H   0  0  0  0  0  0  0  0  0  0  0  0
   -1.6267   -7.2543   -7.0611 H   0  0  0  0  0  0  0  0  0  0  0  0
   -2.5280   -6.1941   -5.9741 H   0  0  0  0  0  0  0  0  0  0  0  0
   -4.0496   -8.1600   -5.4363 H   0  0  0  0  0  0  0  0  0  0  0  0
   -2.7643   -9.5632   -7.8207 H   0  0  0  0  0  0  0  0  0  0  0  0
   -3.9021  -10.2418   -6.6447 H   0  0  0  0  0  0  0  0  0  0  0  0
   -4.1894   -5.4102   -6.8917 H   0  0  0  0  0  0  0  0  0  0  0  0
   -5.5167   -6.2248   -6.0188 H   0  0  0  0  0  0  0  0  0  0  0  0
   -5.7181   -5.7639   -7.7248 H   0  0  0  0  0  0  0  0  0  0  0  0
   -4.2840   -7.0054   -9.3095 H   0  0  0  0  0  0  0  0  0  0  0  0
   -6.1773   -8.6901   -6.7745 H   0  0  0  0  0  0  0  0  0  0  0  0
   -5.3012   -9.3879   -8.1656 H   0  0  0  0  0  0  0  0  0  0  0  0
   -6.3543   -7.9743   -8.3930 H   0  0  0  0  0  0  0  0  0  0  0  0
   -1.1653   -8.6368   -2.2801 H   0  0  0  0  0  0  0  0  0  0  0  0
   -0.9828   -7.0882   -0.3439 H   0  0  0  0  0  0  0  0  0  0  0  0
    1.2481   -6.5354    0.5967 H   0  0  0  0  0  0  0  0  0  0  0  0
    5.0461  -11.3122   -0.6226 H   0  0  0  0  0  0  0  0  0  0  0  0
    5.0049   -9.1606    1.5973 H   0  0  0  0  0  0  0  0  0  0  0  0
    5.0361  -10.9757    1.7982 H   0  0  0  0  0  0  0  0  0  0  0  0
    2.5056  -10.4871   -0.3738 H   0  0  0  0  0  0  0  0  0  0  0  0
    0.9115  -10.0767    0.2533 H   0  0  0  0  0  0  0  0  0  0  0  0
    3.4808  -12.5118   -0.0485 H   0  0  0  0  0  0  0  0  0  0  0  0
    4.9954  -14.0456    0.6527 H   0  0  0  0  0  0  0  0  0  0  0  0
    4.1733  -15.4687   -0.0443 H   0  0  0  0  0  0  0  0  0  0  0  0
    4.4345  -15.3826    1.7144 H   0  0  0  0  0  0  0  0  0  0  0  0
   -0.6076  -11.0107   -0.3669 H   0  0  0  0  0  0  0  0  0  0  0  0
   -1.3462  -13.0622   -2.3885 H   0  0  0  0  0  0  0  0  0  0  0  0
   -1.6562  -11.3224   -2.6035 H   0  0  0  0  0  0  0  0  0  0  0  0
   -2.5753  -12.2542   -1.3760 H   0  0  0  0  0  0  0  0  0  0  0  0
  1  2  2  0  0  0  0
  2  3  1  0  0  0  0
  2 32  1  0  0  0  0
  3  4  1  0  0  0  0
  4 47  1  0  0  0  0
  4 48  1  0  0  0  0
  5 31  1  0  0  0  0
  5  4  1  0  0  0  0
  6  5  2  0  0  0  0
  7  6  1  0  0  0  0
  7 29  2  0  0  0  0
  8  9  1  0  0  0  0
  8  7  1  0  0  0  0
  9 50  1  0  0  0  0
 10 51  1  0  0  0  0
 10  9  2  0  0  0  0
 11 10  1  0  0  0  0
 12 11  1  0  0  0  0
 12 13  1  0  0  0  0
 13 52  1  0  0  0  0
 14 12  2  0  0  0  0
 15  8  2  0  0  0  0
 16 11  2  0  0  0  0
 16 15  1  0  0  0  0
 17 16  1  0  0  0  0
 18 17  1  0  0  0  0
 19 17  1  0  0  0  0
 19 20  2  0  0  0  0
 20 21  1  0  0  0  0
 20 15  1  0  0  0  0
 21 54  1  0  0  0  0
 21 55  1  0  0  0  0
 22 57  1  0  0  0  0
 22 21  1  0  0  0  0
 23 22  1  0  0  0  0
 23 58  1  1  0  0  0
 24 60  1  0  0  0  0
 24 23  1  0  0  0  0
 24 19  1  0  0  0  0
 25 26  1  0  0  0  0
 25 23  1  0  0  0  0
 26 61  1  0  0  0  0
 26 62  1  0  0  0  0
 27 25  1  0  0  0  0
 28 25  1  0  0  0  0
 28 65  1  0  0  0  0
 29 30  1  0  0  0  0
 30 69  1  0  0  0  0
 30 31  2  0  0  0  0
 31 70  1  0  0  0  0
 32 33  1  0  0  0  0
 33 72  1  0  0  0  0
 33 73  1  0  0  0  0
 35 34  1  0  0  0  0
 36 35  1  0  0  0  0
 36 37  1  1  0  0  0
 38 36  1  0  0  0  0
 38 39  1  0  0  0  0
 39 41  2  0  0  0  0
 40 39  1  0  0  0  0
 40 79  1  0  0  0  0
 42 36  1  0  0  0  0
 43 42  1  0  0  0  0
 43 80  1  0  0  0  0
 44 83  1  0  0  0  0
 44 43  1  0  0  0  0
 45 42  2  0  0  0  0
 46  3  1  0  0  0  0
 49  6  1  0  0  0  0
 53 13  1  0  0  0  0
 56 22  1  0  0  0  0
 59 24  1  0  0  0  0
 63 26  1  0  0  0  0
 64 27  1  0  0  0  0
 66 28  1  0  0  0  0
 67 28  1  0  0  0  0
 68 29  1  0  0  0  0
 71 32  1  0  0  0  0
 74 35  1  0  0  0  0
 75 35  1  0  0  0  0
 76 38  1  0  0  0  0
 77 40  1  0  0  0  0
 78 40  1  0  0  0  0
 81 44  1  0  0  0  0
 82 44  1  0  0  0  0
M  END
