83
-1 1
O         5.465667   -9.566509   -2.373142
C         5.069269   -9.296419   -1.235257
N         4.830880   -7.934609   -0.950420
C         3.679687   -7.427041   -0.241837
C         2.337134   -7.605347   -0.931679
C         2.220655   -8.374769   -2.085785
C         0.970000   -8.775650   -2.575156
C         0.880678   -9.900980   -3.538301
C         1.756016  -10.974187   -3.347783
C         1.517080  -12.232972   -3.904557
C         0.405352  -12.465806   -4.704680
C        -0.103019  -13.825469   -5.035427
N         0.190447  -14.770188   -4.105853
O        -0.787483  -14.051351   -6.029458
C        -0.157618  -10.060897   -4.485979
C        -0.361874  -11.344767   -5.054492
N        -1.447849  -11.282183   -5.882180
H        -1.749918  -12.084733   -6.422490
C        -1.923746   -9.993578   -5.898137
C        -1.176388   -9.208148   -5.056151
C        -1.417013   -7.731672   -4.952123
C        -2.240731   -7.241104   -6.146335
C        -3.486772   -8.109870   -6.386752
C        -3.058090   -9.541583   -6.756330
C        -4.454290   -7.510595   -7.436697
C        -4.996164   -6.148430   -6.985478
O        -3.699330   -7.351097   -8.629352
C        -5.637482   -8.450315   -7.703432
C        -0.183970   -8.295228   -1.944051
C        -0.077636   -7.449752   -0.838817
C         1.172197   -7.125132   -0.320834
C         4.894957  -10.305561   -0.218752
C         4.769012  -10.132894    1.159128
S         2.577284  -10.122051    1.972275
C         1.797246  -10.695770    0.456584
C         1.467401  -12.201179    0.429234
H         0.932204  -12.480167    1.352814
N         2.688072  -12.953636    0.400533
C         2.830600  -14.162168    0.995847
C         4.203180  -14.789171    0.821061
O         1.937215  -14.723081    1.603283
C         0.537714  -12.647739   -0.721627
N        -0.561910  -11.874854   -0.889680
C        -1.592944  -12.133212   -1.861381
O         0.749603  -13.658905   -1.376574
H         5.040530   -7.414290   -1.797361
H         3.846062   -6.359730   -0.017250
H         3.574243   -7.935260    0.729389
H         3.121455   -8.754464   -2.571213
H         2.590212  -10.867754   -2.651581
H         2.169107  -13.061101   -3.625380
H         0.468990  -14.493923   -3.158957
H        -0.223900  -15.682982   -4.242112
H        -0.458822   -7.191237   -4.903678
H        -1.944050   -7.476793   -4.015487
H        -1.626656   -7.254264   -7.061057
H        -2.528025   -6.194068   -5.974061
H        -4.049554   -8.159965   -5.436258
H        -2.764304   -9.563212   -7.820668
H        -3.902067  -10.241825   -6.644696
H        -4.189442   -5.410195   -6.891717
H        -5.516743   -6.224836   -6.018765
H        -5.718076   -5.763871   -7.724794
H        -4.283958   -7.005358   -9.309531
H        -6.177283   -8.690082   -6.774473
H        -5.301166   -9.387882   -8.165586
H        -6.354274   -7.974256   -8.392991
H        -1.165295   -8.636843   -2.280132
H        -0.982787   -7.088249   -0.343915
H         1.248128   -6.535436    0.596701
H         5.046095  -11.312166   -0.622636
H         5.004924   -9.160578    1.597269
H         5.036130  -10.975718    1.798199
H         2.505637  -10.487065   -0.373849
H         0.911488  -10.076652    0.253289
H         3.480793  -12.511752   -0.048536
H         4.995449  -14.045556    0.652737
H         4.173304  -15.468708   -0.044286
H         4.434529  -15.382593    1.714425
H        -0.607568  -11.010715   -0.366949
H        -1.346249  -13.062197   -2.388517
H        -1.656166  -11.322435   -2.603453
H        -2.575264  -12.254161   -1.375990
