-1 1
 OpenBabel05232413493D

 83 85  0  0  1  0  0  0  0  0999 V2000
    5.3431    3.6307   -0.1809 O   0  0  0  0  0  0  0  0  0  0  0  0
    4.8609    2.9870    0.7376 C   0  0  0  0  0  0  0  0  0  0  0  0
    4.0439    3.5966    1.6558 N   0  0  0  0  0  0  0  0  0  0  0  0
    3.0510    3.0131    2.5392 C   0  0  0  0  0  0  0  0  0  0  0  0
    1.6934    2.7972    1.9008 C   0  0  0  0  0  0  0  0  0  0  0  0
    1.5911    1.9768    0.7765 C   0  0  0  0  0  0  0  0  0  0  0  0
    0.3537    1.5873    0.2540 C   0  0  0  0  0  0  0  0  0  0  0  0
    0.2681    0.4704   -0.7212 C   0  0  0  0  0  0  0  0  0  0  0  0
    1.1389   -0.6041   -0.5319 C   0  0  0  0  0  0  0  0  0  0  0  0
    0.9283   -1.8537   -1.1180 C   0  0  0  0  0  0  0  0  0  0  0  0
   -0.1632   -2.0796   -1.9453 C   0  0  0  0  0  0  0  0  0  0  0  0
   -0.6354   -3.4405   -2.3250 C   0  0  0  0  0  0  0  0  0  0  0  0
   -0.2992   -4.4164   -1.4456 N   0  0  0  0  0  0  0  0  0  0  0  0
   -1.3253   -3.6414   -3.3212 O   0  0  0  0  0  0  0  0  0  0  0  0
   -0.7510    0.3211   -1.6931 C   0  0  0  0  0  0  0  0  0  0  0  0
   -0.9342   -0.9573   -2.2857 C   0  0  0  0  0  0  0  0  0  0  0  0
   -1.9957   -0.8863   -3.1429 N   0  0  0  0  0  0  0  0  0  0  0  0
   -2.2804   -1.6856   -3.6979 H   0  0  0  0  0  0  0  0  0  0  0  0
   -2.4755    0.3999   -3.1555 C   0  0  0  0  0  0  0  0  0  0  0  0
   -1.7554    1.1775   -2.2823 C   0  0  0  0  0  0  0  0  0  0  0  0
   -2.0039    2.6524   -2.1699 C   0  0  0  0  0  0  0  0  0  0  0  0
   -2.7917    3.1537   -3.3837 C   0  0  0  0  0  0  0  0  0  0  0  0
   -4.0287    2.2859   -3.6691 C   0  0  2  0  0  0  0  0  0  0  0  0
   -3.5869    0.8585   -4.0398 C   0  0  0  0  0  0  0  0  0  0  0  0
   -4.9651    2.8940   -4.7419 C   0  0  0  0  0  0  0  0  0  0  0  0
   -5.5222    4.2512   -4.2944 C   0  0  0  0  0  0  0  0  0  0  0  0
   -4.1744    3.0653   -5.9093 O   0  0  0  0  0  0  0  0  0  0  0  0
   -6.1383    1.9553   -5.0527 C   0  0  0  0  0  0  0  0  0  0  0  0
   -0.8086    2.1028    0.8488 C   0  0  0  0  0  0  0  0  0  0  0  0
   -0.7199    2.9713    1.9326 C   0  0  0  0  0  0  0  0  0  0  0  0
    0.5242    3.3081    2.4673 C   0  0  0  0  0  0  0  0  0  0  0  0
    5.1743    1.5336    0.8791 C   0  0  0  0  0  0  0  0  0  0  0  0
    5.4626    0.8927    2.0142 C   0  0  0  0  0  0  0  0  0  0  0  0
    3.2053   -0.5829    4.1262 S   0  0  0  0  0  1  0  0  0  0  0  0
    2.0419   -1.1063    2.8245 C   0  0  0  0  0  0  0  0  0  0  0  0
    1.0751   -2.2226    3.2747 C   0  0  2  0  0  0  0  0  0  0  0  0
    0.4266   -1.8127    4.0722 H   0  0  0  0  0  0  0  0  0  0  0  0
    1.8374   -3.3217    3.7945 N   0  0  0  0  0  0  0  0  0  0  0  0
    1.2360   -4.3904    4.3641 C   0  0  0  0  0  0  0  0  0  0  0  0
    2.1837   -5.4022    4.9849 C   0  0  0  0  0  0  0  0  0  0  0  0
    0.0279   -4.5654    4.3466 O   0  0  0  0  0  0  0  0  0  0  0  0
    0.1716   -2.6551    2.1155 C   0  0  0  0  0  0  0  0  0  0  0  0
   -0.9437   -1.8917    2.0156 N   0  0  0  0  0  0  0  0  0  0  0  0
   -1.9393   -2.0208    0.9861 C   0  0  0  0  0  0  0  0  0  0  0  0
    0.4510   -3.5495    1.3272 O   0  0  0  0  0  0  0  0  0  0  0  0
    3.8834    4.5649    1.3960 H   0  0  0  0  0  0  0  0  0  0  0  0
    2.9462    3.6656    3.4194 H   0  0  0  0  0  0  0  0  0  0  0  0
    3.3903    2.0377    2.9250 H   0  0  0  0  0  0  0  0  0  0  0  0
    2.5046    1.5703    0.3376 H   0  0  0  0  0  0  0  0  0  0  0  0
    1.9388   -0.5157    0.2008 H   0  0  0  0  0  0  0  0  0  0  0  0
    1.5812   -2.6791   -0.8342 H   0  0  0  0  0  0  0  0  0  0  0  0
    0.0178   -4.1910   -0.4952 H   0  0  0  0  0  0  0  0  0  0  0  0
   -0.6797   -5.3367   -1.6233 H   0  0  0  0  0  0  0  0  0  0  0  0
   -1.0498    3.1958   -2.0865 H   0  0  0  0  0  0  0  0  0  0  0  0
   -2.5625    2.8960   -1.2486 H   0  0  0  0  0  0  0  0  0  0  0  0
   -2.1504    3.1500   -4.2795 H   0  0  0  0  0  0  0  0  0  0  0  0
   -3.0850    4.1987   -3.2099 H   0  0  0  0  0  0  0  0  0  0  0  0
   -4.6196    2.2260   -2.7364 H   0  0  0  0  0  0  0  0  0  0  0  0
   -3.2634    0.8475   -5.0956 H   0  0  0  0  0  0  0  0  0  0  0  0
   -4.4322    0.1557   -3.9584 H   0  0  0  0  0  0  0  0  0  0  0  0
   -4.7198    4.9896   -4.1697 H   0  0  0  0  0  0  0  0  0  0  0  0
   -6.0716    4.1651   -3.3446 H   0  0  0  0  0  0  0  0  0  0  0  0
   -6.2222    4.6418   -5.0514 H   0  0  0  0  0  0  0  0  0  0  0  0
   -4.7382    3.4169   -6.6040 H   0  0  0  0  0  0  0  0  0  0  0  0
   -6.7055    1.7063   -4.1427 H   0  0  0  0  0  0  0  0  0  0  0  0
   -5.7869    1.0224   -5.5131 H   0  0  0  0  0  0  0  0  0  0  0  0
   -6.8347    2.4367   -5.7591 H   0  0  0  0  0  0  0  0  0  0  0  0
   -1.7854    1.7720    0.4914 H   0  0  0  0  0  0  0  0  0  0  0  0
   -1.6326    3.3587    2.3923 H   0  0  0  0  0  0  0  0  0  0  0  0
    0.5853    3.9468    3.3527 H   0  0  0  0  0  0  0  0  0  0  0  0
    5.2617    1.0233   -0.0850 H   0  0  0  0  0  0  0  0  0  0  0  0
    5.4296    1.3759    2.9919 H   0  0  0  0  0  0  0  0  0  0  0  0
    5.7429   -0.1619    2.0186 H   0  0  0  0  0  0  0  0  0  0  0  0
    2.5950   -1.4903    1.9492 H   0  0  0  0  0  0  0  0  0  0  0  0
    1.4293   -0.2584    2.4778 H   0  0  0  0  0  0  0  0  0  0  0  0
    2.7790   -3.0402    4.0790 H   0  0  0  0  0  0  0  0  0  0  0  0
    3.1167   -4.9433    5.3420 H   0  0  0  0  0  0  0  0  0  0  0  0
    2.4384   -6.1600    4.2283 H   0  0  0  0  0  0  0  0  0  0  0  0
    1.6711   -5.9044    5.8149 H   0  0  0  0  0  0  0  0  0  0  0  0
   -1.0594   -1.1600    2.7035 H   0  0  0  0  0  0  0  0  0  0  0  0
   -1.7177   -2.9208    0.4010 H   0  0  0  0  0  0  0  0  0  0  0  0
   -1.9359   -1.1565    0.3030 H   0  0  0  0  0  0  0  0  0  0  0  0
   -2.9444   -2.1291    1.4240 H   0  0  0  0  0  0  0  0  0  0  0  0
  1  2  2  0  0  0  0
  2 32  1  0  0  0  0
  2  3  1  0  0  0  0
  3  4  1  0  0  0  0
  4 48  1  0  0  0  0
  4 47  1  0  0  0  0
  5 31  1  0  0  0  0
  5  4  1  0  0  0  0
  6  5  2  0  0  0  0
  7  6  1  0  0  0  0
  7 29  2  0  0  0  0
  8  9  1  0  0  0  0
  8  7  1  0  0  0  0
  9 50  1  0  0  0  0
 10 51  1  0  0  0  0
 10  9  2  0  0  0  0
 11 10  1  0  0  0  0
 12 11  1  0  0  0  0
 12 13  1  0  0  0  0
 13 52  1  0  0  0  0
 14 12  2  0  0  0  0
 15  8  2  0  0  0  0
 16 11  2  0  0  0  0
 16 15  1  0  0  0  0
 17 16  1  0  0  0  0
 18 17  1  0  0  0  0
 19 17  1  0  0  0  0
 19 20  2  0  0  0  0
 20 21  1  0  0  0  0
 20 15  1  0  0  0  0
 21 54  1  0  0  0  0
 21 55  1  0  0  0  0
 22 57  1  0  0  0  0
 22 21  1  0  0  0  0
 23 22  1  0  0  0  0
 23 58  1  1  0  0  0
 24 60  1  0  0  0  0
 24 23  1  0  0  0  0
 24 19  1  0  0  0  0
 25 26  1  0  0  0  0
 25 23  1  0  0  0  0
 26 61  1  0  0  0  0
 26 62  1  0  0  0  0
 27 25  1  0  0  0  0
 28 25  1  0  0  0  0
 28 65  1  0  0  0  0
 29 30  1  0  0  0  0
 30 69  1  0  0  0  0
 30 31  2  0  0  0  0
 31 70  1  0  0  0  0
 32 33  2  0  0  0  0
 33 73  1  0  0  0  0
 33 72  1  0  0  0  0
 35 36  1  0  0  0  0
 35 34  1  0  0  0  0
 36 38  1  0  0  0  0
 36 37  1  1  0  0  0
 38 76  1  0  0  0  0
 38 39  1  0  0  0  0
 39 40  1  0  0  0  0
 40 77  1  0  0  0  0
 40 79  1  0  0  0  0
 41 39  2  0  0  0  0
 42 36  1  0  0  0  0
 43 42  1  0  0  0  0
 43 80  1  0  0  0  0
 44 83  1  0  0  0  0
 44 43  1  0  0  0  0
 45 42  2  0  0  0  0
 46  3  1  0  0  0  0
 49  6  1  0  0  0  0
 53 13  1  0  0  0  0
 56 22  1  0  0  0  0
 59 24  1  0  0  0  0
 63 26  1  0  0  0  0
 64 27  1  0  0  0  0
 66 28  1  0  0  0  0
 67 28  1  0  0  0  0
 68 29  1  0  0  0  0
 71 32  1  0  0  0  0
 74 35  1  0  0  0  0
 75 35  1  0  0  0  0
 78 40  1  0  0  0  0
 81 44  1  0  0  0  0
 82 44  1  0  0  0  0
M  END
