83
-1 1
O         4.798077    0.735224    0.350880
C         4.408735    0.970037    1.510144
N         4.313038    2.359293    1.848749
C         3.166608    2.954871    2.488686
C         1.822019    2.770161    1.798885
C         1.709962    1.987418    0.651707
C         0.459519    1.581158    0.167868
C         0.366156    0.424922   -0.758050
C         1.213115   -0.660941   -0.511064
C         0.940081   -1.936861   -1.013707
C        -0.164778   -2.170702   -1.825105
C        -0.702254   -3.525207   -2.133662
N        -0.473202   -4.452372   -1.169955
O        -1.354051   -3.758738   -3.148012
C        -0.664237    0.253751   -1.710461
C        -0.893253   -1.044224   -2.233837
N        -1.966623   -0.985146   -3.078795
H        -2.275832   -1.797486   -3.600177
C        -2.411009    0.313006   -3.146085
C        -1.655856    1.109577   -2.321686
C        -1.862338    2.593722   -2.269171
C        -2.662527    3.063198   -3.487629
C        -3.924438    2.213960   -3.715126
C        -3.522886    0.762439   -4.034474
C        -4.866803    2.800272   -4.794857
C        -5.384973    4.186752   -4.392499
O        -4.094760    2.906883   -5.982379
C        -6.066389    1.877504   -5.047183
C        -0.697251    2.079608    0.782375
C        -0.594002    2.941639    1.874942
C         0.655777    3.262786    2.397156
C         4.084997   -0.031019    2.454766
C         3.933254    0.112619    3.897553
S         2.113304    0.185789    4.671828
C         1.067851   -0.284428    3.278178
C         0.794980   -1.790983    3.148286
H         0.375224   -2.184082    4.090859
N         2.034582   -2.478267    2.925899
C         2.369260   -3.627639    3.564512
C         3.759176   -4.138946    3.229407
O         1.624326   -4.221364    4.322161
C        -0.232764   -2.198748    2.068959
N        -1.216677   -1.303889    1.814757
C        -2.297569   -1.552196    0.893576
O        -0.187157   -3.301997    1.543679
H         4.590461    2.860497    1.009730
H         3.365066    4.032639    2.622613
H         3.038061    2.547838    3.504096
H         2.613016    1.597948    0.176113
H         2.053055   -0.539784    0.178443
H         1.562632   -2.772670   -0.690780
H        -0.253527   -4.153854   -0.214527
H        -0.917042   -5.352317   -1.300191
H        -0.891942    3.112643   -2.228789
H        -2.391773    2.891823   -1.346617
H        -2.039004    3.007590   -4.394302
H        -2.928814    4.121151   -3.352268
H        -4.498844    2.205924   -2.770283
H        -3.214826    0.701710   -5.093265
H        -4.383871    0.084707   -3.914059
H        -4.563728    4.910186   -4.310097
H        -5.919578    4.150907   -3.431090
H        -6.088798    4.563731   -5.152872
H        -4.663784    3.243464   -6.680159
H        -6.621500    1.677155   -4.117897
H        -5.744530    0.919660   -5.476881
H        -6.765247    2.347049   -5.759260
H        -1.678836    1.741984    0.441497
H        -1.500459    3.320447    2.354785
H         0.729830    3.866236    3.306542
H         4.307274   -1.028948    2.060150
H         4.360237    1.043438    4.297719
H         4.358595   -0.735403    4.449633
H         1.585396    0.069893    2.369938
H         0.143749    0.300014    3.389204
H         2.741566   -1.958114    2.412158
H         4.450970   -3.331030    2.950285
H         3.686355   -4.839826    2.383802
H         4.151537   -4.685514    4.095898
H        -1.102084   -0.361584    2.163482
H        -2.117580   -2.514170    0.399015
H        -2.343597   -0.768900    0.122780
H        -3.267486   -1.600223    1.416442
