-1 1
 OpenBabel05192410563D

 87 92  0  0  1  0  0  0  0  0999 V2000
    0.8232   -7.1339    0.1293 C   0  0  0  0  0  0  0  0  0  0  0  0
   -0.0248   -6.9577   -1.0325 N   0  0  0  0  0  0  0  0  0  0  0  0
   -1.1529   -6.0683   -0.8132 C   0  0  0  0  0  0  0  0  0  0  0  0
   -0.7779   -4.5790   -0.7706 C   0  0  0  0  0  0  0  0  0  0  0  0
   -0.0062   -4.1986   -1.9417 N   0  0  0  0  0  0  0  0  0  0  0  0
    1.1238   -5.0785   -2.1968 C   0  0  0  0  0  0  0  0  0  0  0  0
    0.6974   -6.5480   -2.2326 C   0  0  0  0  0  0  0  0  0  0  0  0
   -0.6289   -3.6075   -3.0719 C   0  0  0  0  0  0  0  0  0  0  0  0
   -0.4040   -4.0656   -4.1887 O   0  0  0  0  0  0  0  0  0  0  0  0
   -1.4285   -2.4259   -2.8154 C   0  0  1  0  0  3  0  0  0  0  0  0
   -1.1081   -1.5730   -1.6605 C   0  0  1  0  0  0  0  0  0  0  0  0
    0.6429   -0.6947   -1.8043 S   0  0  0  0  0  0  0  0  0  0  0  0
    1.3901   -1.3273   -0.2719 C   0  0  0  0  0  0  0  0  0  0  0  0
    2.9233   -1.4621   -0.3121 C   0  0  2  0  0  0  0  0  0  0  0  0
    3.1815   -2.1637   -1.1228 H   0  0  0  0  0  0  0  0  0  0  0  0
    3.4243   -1.9631    0.9457 N   0  0  0  0  0  0  0  0  0  0  0  0
    3.2735   -3.2396    1.3642 C   0  0  0  0  0  0  0  0  0  0  0  0
    3.8168   -3.5396    2.7481 C   0  0  0  0  0  0  0  0  0  0  0  0
    2.7297   -4.1019    0.6942 O   0  0  0  0  0  0  0  0  0  0  0  0
    3.6235   -0.1171   -0.5430 C   0  0  0  0  0  0  0  0  0  0  0  0
    3.5725    0.3477   -1.8083 N   0  0  0  0  0  0  0  0  0  0  0  0
    3.9648    1.6906   -2.1575 C   0  0  0  0  0  0  0  0  0  0  0  0
    4.1730    0.4733    0.3783 O   0  0  0  0  0  0  0  0  0  0  0  0
   -2.0864   -0.5187   -1.2689 C   0  0  0  0  0  0  0  0  0  0  0  0
   -1.7410    0.2293   -0.1902 O   0  0  0  0  0  0  0  0  0  0  0  0
   -2.7121    1.1490    0.0162 C   0  0  0  0  0  0  0  0  0  0  0  0
   -2.5502    2.1264    1.0912 C   0  0  0  0  0  0  0  0  0  0  0  0
   -3.5189    2.4356    1.9037 N   0  0  0  0  0  0  0  0  0  0  0  0
   -1.3737    2.8510    1.3109 N   0  0  0  0  0  0  0  0  0  0  0  0
   -0.2843    2.7901    0.3111 C   0  0  0  0  0  0  0  0  0  0  0  0
   -0.0256    4.0978   -0.4532 C   0  0  0  0  0  0  0  0  0  0  0  0
    1.0360    5.0175    0.1425 C   0  0  0  0  0  0  0  0  0  0  0  0
    2.3189    4.2543    0.4934 C   0  0  0  0  0  0  0  0  0  0  0  0
    2.0790    3.0157    1.3643 C   0  0  0  0  0  0  0  0  0  0  0  0
    1.0091    2.1078    0.7709 C   0  0  0  0  0  0  0  0  0  0  0  0
   -1.6442    3.6702    2.3978 C   0  0  0  0  0  0  0  0  0  0  0  0
   -2.9945    3.3975    2.7241 C   0  0  0  0  0  0  0  0  0  0  0  0
   -3.6622    4.0450    3.7814 C   0  0  0  0  0  0  0  0  0  0  0  0
   -3.0678    4.9365    4.5441 N   0  0  0  0  0  0  0  0  0  0  0  0
   -1.7831    5.1694    4.2514 C   0  0  0  0  0  0  0  0  0  0  0  0
   -0.9637    4.6083    3.2301 C   0  0  0  0  0  0  0  0  0  0  0  0
    0.3384    5.1938    3.4202 C   0  0  0  0  0  0  0  0  0  0  0  0
    0.2561    6.0510    4.4862 C   0  0  0  0  0  0  0  0  0  0  0  0
   -1.0166    6.0416    4.9814 N   0  0  0  0  0  0  0  0  0  0  0  0
   -1.3724    6.5593    5.7711 H   0  0  0  0  0  0  0  0  0  0  0  0
   -3.7102    0.9778   -0.8982 C   0  0  0  0  0  0  0  0  0  0  0  0
   -3.3021   -0.1043   -1.7370 C   0  0  0  0  0  0  0  0  0  0  0  0
   -2.0993   -1.8682   -3.9275 C   0  0  0  0  0  0  0  0  0  0  0  0
   -2.6929   -1.3753   -4.8041 N   0  0  0  0  0  0  0  0  0  0  0  0
    0.2141   -7.4973    0.9738 H   0  0  0  0  0  0  0  0  0  0  0  0
    1.3660   -6.2277    0.4666 H   0  0  0  0  0  0  0  0  0  0  0  0
    1.5792   -7.9071   -0.0871 H   0  0  0  0  0  0  0  0  0  0  0  0
   -1.6663   -6.3549    0.1208 H   0  0  0  0  0  0  0  0  0  0  0  0
   -1.8690   -6.2141   -1.6415 H   0  0  0  0  0  0  0  0  0  0  0  0
   -0.1958   -4.3627    0.1465 H   0  0  0  0  0  0  0  0  0  0  0  0
   -1.7045   -3.9900   -0.7358 H   0  0  0  0  0  0  0  0  0  0  0  0
    1.8716   -4.9121   -1.4027 H   0  0  0  0  0  0  0  0  0  0  0  0
    1.5597   -4.7946   -3.1627 H   0  0  0  0  0  0  0  0  0  0  0  0
    1.5740   -7.2048   -2.3645 H   0  0  0  0  0  0  0  0  0  0  0  0
    0.0360   -6.6885   -3.1039 H   0  0  0  0  0  0  0  0  0  0  0  0
   -0.9010   -2.1666   -0.7630 H   0  0  0  0  0  0  0  0  0  0  0  0
    1.0017   -2.3442   -0.1203 H   0  0  0  0  0  0  0  0  0  0  0  0
    1.1114   -0.7035    0.5901 H   0  0  0  0  0  0  0  0  0  0  0  0
    3.8853   -1.2600    1.5163 H   0  0  0  0  0  0  0  0  0  0  0  0
    4.4108   -2.7201    3.1750 H   0  0  0  0  0  0  0  0  0  0  0  0
    4.4290   -4.4496    2.6930 H   0  0  0  0  0  0  0  0  0  0  0  0
    2.9687   -3.7529    3.4148 H   0  0  0  0  0  0  0  0  0  0  0  0
    2.9782   -0.1602   -2.4593 H   0  0  0  0  0  0  0  0  0  0  0  0
    4.5312    2.1127   -1.3183 H   0  0  0  0  0  0  0  0  0  0  0  0
    3.0831    2.3248   -2.3472 H   0  0  0  0  0  0  0  0  0  0  0  0
    4.5984    1.6919   -3.0566 H   0  0  0  0  0  0  0  0  0  0  0  0
   -0.6948    2.1101   -0.4370 H   0  0  0  0  0  0  0  0  0  0  0  0
   -0.9778    4.6302   -0.6006 H   0  0  0  0  0  0  0  0  0  0  0  0
    0.3111    3.7869   -1.4572 H   0  0  0  0  0  0  0  0  0  0  0  0
    0.6320    5.5286    1.0262 H   0  0  0  0  0  0  0  0  0  0  0  0
    1.2677    5.8146   -0.5826 H   0  0  0  0  0  0  0  0  0  0  0  0
    3.0402    4.9303    0.9823 H   0  0  0  0  0  0  0  0  0  0  0  0
    2.7987    3.9257   -0.4455 H   0  0  0  0  0  0  0  0  0  0  0  0
    1.7993    3.3002    2.3884 H   0  0  0  0  0  0  0  0  0  0  0  0
    3.0124    2.4384    1.4469 H   0  0  0  0  0  0  0  0  0  0  0  0
    0.7542    1.2906    1.4612 H   0  0  0  0  0  0  0  0  0  0  0  0
    1.4169    1.6253   -0.1330 H   0  0  0  0  0  0  0  0  0  0  0  0
   -4.7105    3.7989    3.9790 H   0  0  0  0  0  0  0  0  0  0  0  0
    1.2478    5.0171    2.8646 H   0  0  0  0  0  0  0  0  0  0  0  0
    1.0315    6.6705    4.9307 H   0  0  0  0  0  0  0  0  0  0  0  0
   -4.6142    1.5770   -0.9675 H   0  0  0  0  0  0  0  0  0  0  0  0
   -3.8134   -0.5081   -2.6059 H   0  0  0  0  0  0  0  0  0  0  0  0
  1 51  1  0  0  0  0
  1 50  1  0  0  0  0
  2  3  1  0  0  0  0
  2  1  1  0  0  0  0
  3  4  1  0  0  0  0
  3 53  1  0  0  0  0
  4 56  1  0  0  0  0
  4 55  1  0  0  0  0
  5  4  1  0  0  0  0
  6  5  1  0  0  0  0
  6 57  1  0  0  0  0
  7  6  1  0  0  0  0
  7  2  1  0  0  0  0
  8 10  1  0  0  0  0
  8  5  1  0  0  0  0
  9  8  2  0  0  0  0
 10 48  1  6  0  0  0
 10 11  1  0  0  0  0
 11 24  1  0  0  0  0
 11 61  1  1  0  0  0
 12 11  1  0  0  0  0
 12 13  1  0  0  0  0
 13 62  1  0  0  0  0
 13 63  1  0  0  0  0
 14 15  1  6  0  0  0
 14 13  1  0  0  0  0
 14 16  1  0  0  0  0
 16 17  1  0  0  0  0
 16 64  1  0  0  0  0
 17 18  1  0  0  0  0
 18 65  1  0  0  0  0
 18 67  1  0  0  0  0
 19 17  2  0  0  0  0
 20 14  1  0  0  0  0
 20 23  2  0  0  0  0
 21 20  1  0  0  0  0
 22 21  1  0  0  0  0
 22 69  1  0  0  0  0
 24 25  1  0  0  0  0
 25 26  1  0  0  0  0
 26 27  1  0  0  0  0
 27 29  1  0  0  0  0
 27 28  2  0  0  0  0
 28 37  1  0  0  0  0
 29 36  1  0  0  0  0
 30 35  1  0  0  0  0
 30 29  1  0  0  0  0
 31 32  1  0  0  0  0
 31 30  1  0  0  0  0
 32 33  1  0  0  0  0
 32 75  1  0  0  0  0
 33 77  1  0  0  0  0
 33 34  1  0  0  0  0
 34 80  1  0  0  0  0
 34 79  1  0  0  0  0
 35 34  1  0  0  0  0
 35 81  1  0  0  0  0
 36 37  2  0  0  0  0
 36 41  1  0  0  0  0
 37 38  1  0  0  0  0
 38 83  1  0  0  0  0
 38 39  2  0  0  0  0
 40 39  1  0  0  0  0
 40 44  1  0  0  0  0
 41 42  1  0  0  0  0
 41 40  2  0  0  0  0
 42 43  2  0  0  0  0
 43 85  1  0  0  0  0
 43 44  1  0  0  0  0
 44 45  1  0  0  0  0
 46 26  2  0  0  0  0
 47 24  2  0  0  0  0
 47 46  1  0  0  0  0
 49 48  3  0  0  0  0
 52  1  1  0  0  0  0
 54  3  1  0  0  0  0
 58  6  1  0  0  0  0
 59  7  1  0  0  0  0
 60  7  1  0  0  0  0
 66 18  1  0  0  0  0
 68 21  1  0  0  0  0
 70 22  1  0  0  0  0
 71 22  1  0  0  0  0
 72 30  1  0  0  0  0
 73 31  1  0  0  0  0
 74 31  1  0  0  0  0
 76 32  1  0  0  0  0
 78 33  1  0  0  0  0
 82 35  1  0  0  0  0
 84 42  1  0  0  0  0
 86 46  1  0  0  0  0
 87 47  1  0  0  0  0
M  END
