-1 1
 OpenBabel05232414493D

 87 92  0  0  1  0  0  0  0  0999 V2000
    0.5956   -2.2774   -6.0055 C   0  0  0  0  0  0  0  0  0  0  0  0
   -0.3893   -2.3128   -7.0684 N   0  0  0  0  0  0  0  0  0  0  0  0
   -1.4890   -1.3807   -6.8966 C   0  0  0  0  0  0  0  0  0  0  0  0
   -1.1305    0.0845   -7.1895 C   0  0  0  0  0  0  0  0  0  0  0  0
   -0.4942    0.2097   -8.4871 N   0  0  0  0  0  0  0  0  0  0  0  0
    0.6046   -0.7206   -8.7049 C   0  0  0  0  0  0  0  0  0  0  0  0
    0.1807   -2.1584   -8.4021 C   0  0  0  0  0  0  0  0  0  0  0  0
   -1.1185    0.7609   -9.6132 C   0  0  0  0  0  0  0  0  0  0  0  0
   -0.9182    0.2735  -10.7187 O   0  0  0  0  0  0  0  0  0  0  0  0
   -1.9323    1.9677   -9.4212 C   0  0  1  0  0  3  0  0  0  0  0  0
   -1.6118    2.9279   -8.4140 C   0  0  1  0  0  0  0  0  0  0  0  0
    0.2909    3.9625   -8.7560 S   0  0  0  0  0  0  0  0  0  0  0  0
    1.1484    3.1839   -7.3507 C   0  0  0  0  0  0  0  0  0  0  0  0
    2.6900    3.2518   -7.3694 C   0  0  2  0  0  0  0  0  0  0  0  0
    3.0457    2.6364   -8.2127 H   0  0  0  0  0  0  0  0  0  0  0  0
    3.2384    2.7488   -6.1300 N   0  0  0  0  0  0  0  0  0  0  0  0
    3.2228    1.4537   -5.7510 C   0  0  0  0  0  0  0  0  0  0  0  0
    3.7823    1.1759   -4.3682 C   0  0  0  0  0  0  0  0  0  0  0  0
    2.7766    0.5542   -6.4453 O   0  0  0  0  0  0  0  0  0  0  0  0
    3.2563    4.6720   -7.5233 C   0  0  0  0  0  0  0  0  0  0  0  0
    3.1399    5.2126   -8.7519 N   0  0  0  0  0  0  0  0  0  0  0  0
    3.4427    6.6016   -8.9931 C   0  0  0  0  0  0  0  0  0  0  0  0
    3.7936    5.2452   -6.5817 O   0  0  0  0  0  0  0  0  0  0  0  0
   -2.5120    4.0579   -8.1117 C   0  0  0  0  0  0  0  0  0  0  0  0
   -2.2105    4.7572   -6.9880 O   0  0  0  0  0  0  0  0  0  0  0  0
   -3.0790    5.7892   -6.8875 C   0  0  0  0  0  0  0  0  0  0  0  0
   -2.9572    6.7371   -5.7813 C   0  0  0  0  0  0  0  0  0  0  0  0
   -3.9948    7.1634   -5.1204 N   0  0  0  0  0  0  0  0  0  0  0  0
   -1.7509    7.3142   -5.3761 N   0  0  0  0  0  0  0  0  0  0  0  0
   -0.5363    7.1043   -6.1951 C   0  0  0  0  0  0  0  0  0  0  0  0
    0.0452    8.3607   -6.8591 C   0  0  0  0  0  0  0  0  0  0  0  0
    1.1111    9.1079   -6.0616 C   0  0  0  0  0  0  0  0  0  0  0  0
    2.1628    8.1641   -5.4632 C   0  0  0  0  0  0  0  0  0  0  0  0
    1.5685    6.9718   -4.7045 C   0  0  0  0  0  0  0  0  0  0  0  0
    0.5462    6.2339   -5.5565 C   0  0  0  0  0  0  0  0  0  0  0  0
   -2.0818    8.1604   -4.3269 C   0  0  0  0  0  0  0  0  0  0  0  0
   -3.4896    8.0558   -4.2146 C   0  0  0  0  0  0  0  0  0  0  0  0
   -4.2290    8.7842   -3.2628 C   0  0  0  0  0  0  0  0  0  0  0  0
   -3.6557    9.5982   -2.4039 N   0  0  0  0  0  0  0  0  0  0  0  0
   -2.3221    9.6687   -2.4903 C   0  0  0  0  0  0  0  0  0  0  0  0
   -1.4286    9.0077   -3.3815 C   0  0  0  0  0  0  0  0  0  0  0  0
   -0.1097    9.4233   -2.9773 C   0  0  0  0  0  0  0  0  0  0  0  0
   -0.2518   10.2854   -1.9217 C   0  0  0  0  0  0  0  0  0  0  0  0
   -1.5779   10.4385   -1.6335 N   0  0  0  0  0  0  0  0  0  0  0  0
   -1.9867   10.9966   -0.8988 H   0  0  0  0  0  0  0  0  0  0  0  0
   -3.9731    5.7435   -7.9176 C   0  0  0  0  0  0  0  0  0  0  0  0
   -3.6040    4.6217   -8.7170 C   0  0  0  0  0  0  0  0  0  0  0  0
   -2.7041    2.3505  -10.5482 C   0  0  0  0  0  0  0  0  0  0  0  0
   -3.3750    2.6965  -11.4360 N   0  0  0  0  0  0  0  0  0  0  0  0
    0.0921   -2.4293   -5.0366 H   0  0  0  0  0  0  0  0  0  0  0  0
    1.1938   -1.3461   -5.9414 H   0  0  0  0  0  0  0  0  0  0  0  0
    1.3061   -3.1096   -6.1414 H   0  0  0  0  0  0  0  0  0  0  0  0
   -1.8860   -1.4692   -5.8711 H   0  0  0  0  0  0  0  0  0  0  0  0
   -2.2974   -1.6757   -7.5893 H   0  0  0  0  0  0  0  0  0  0  0  0
   -0.4608    0.4762   -6.3985 H   0  0  0  0  0  0  0  0  0  0  0  0
   -2.0548    0.6758   -7.1755 H   0  0  0  0  0  0  0  0  0  0  0  0
    1.4471   -0.4219   -8.0590 H   0  0  0  0  0  0  0  0  0  0  0  0
    0.9109   -0.6309   -9.7536 H   0  0  0  0  0  0  0  0  0  0  0  0
    1.0397   -2.8419   -8.5064 H   0  0  0  0  0  0  0  0  0  0  0  0
   -0.5801   -2.4623   -9.1418 H   0  0  0  0  0  0  0  0  0  0  0  0
   -1.2244    2.5082   -7.4843 H   0  0  0  0  0  0  0  0  0  0  0  0
    0.8971    2.1137   -7.3515 H   0  0  0  0  0  0  0  0  0  0  0  0
    0.8002    3.6200   -6.4023 H   0  0  0  0  0  0  0  0  0  0  0  0
    3.6438    3.4728   -5.5428 H   0  0  0  0  0  0  0  0  0  0  0  0
    4.3480    2.0179   -3.9462 H   0  0  0  0  0  0  0  0  0  0  0  0
    4.4250    0.2875   -4.4225 H   0  0  0  0  0  0  0  0  0  0  0  0
    2.9444    0.9384   -3.6961 H   0  0  0  0  0  0  0  0  0  0  0  0
    2.4744    4.7556   -9.3761 H   0  0  0  0  0  0  0  0  0  0  0  0
    4.3160    6.8894   -8.3940 H   0  0  0  0  0  0  0  0  0  0  0  0
    2.6017    7.2601   -8.7159 H   0  0  0  0  0  0  0  0  0  0  0  0
    3.6691    6.7513  -10.0573 H   0  0  0  0  0  0  0  0  0  0  0  0
   -0.9112    6.5046   -7.0271 H   0  0  0  0  0  0  0  0  0  0  0  0
   -0.7737    9.0338   -7.1565 H   0  0  0  0  0  0  0  0  0  0  0  0
    0.5004    7.9981   -7.7967 H   0  0  0  0  0  0  0  0  0  0  0  0
    0.6303    9.7063   -5.2768 H   0  0  0  0  0  0  0  0  0  0  0  0
    1.6080    9.8350   -6.7247 H   0  0  0  0  0  0  0  0  0  0  0  0
    2.8466    8.7314   -4.8092 H   0  0  0  0  0  0  0  0  0  0  0  0
    2.7889    7.7529   -6.2726 H   0  0  0  0  0  0  0  0  0  0  0  0
    1.1088    7.2806   -3.7543 H   0  0  0  0  0  0  0  0  0  0  0  0
    2.3818    6.2765   -4.4475 H   0  0  0  0  0  0  0  0  0  0  0  0
    0.0672    5.4138   -5.0013 H   0  0  0  0  0  0  0  0  0  0  0  0
    1.0727    5.7699   -6.4041 H   0  0  0  0  0  0  0  0  0  0  0  0
   -5.3174    8.6695   -3.2334 H   0  0  0  0  0  0  0  0  0  0  0  0
    0.8473    9.1304   -3.3837 H   0  0  0  0  0  0  0  0  0  0  0  0
    0.5150   10.8017   -1.3491 H   0  0  0  0  0  0  0  0  0  0  0  0
   -4.7850    6.4469   -8.0811 H   0  0  0  0  0  0  0  0  0  0  0  0
   -4.0661    4.2764   -9.6368 H   0  0  0  0  0  0  0  0  0  0  0  0
  1 51  1  0  0  0  0
  1 50  1  0  0  0  0
  2  3  1  0  0  0  0
  2  1  1  0  0  0  0
  3 53  1  0  0  0  0
  4 56  1  0  0  0  0
  4  3  1  0  0  0  0
  4 55  1  0  0  0  0
  5  4  1  0  0  0  0
  6  5  1  0  0  0  0
  6  7  1  0  0  0  0
  6 57  1  0  0  0  0
  7  2  1  0  0  0  0
  8 10  1  0  0  0  0
  8  5  1  0  0  0  0
  9  8  2  0  0  0  0
 10 48  1  6  0  0  0
 10 11  1  0  0  0  0
 11 24  1  0  0  0  0
 11 61  1  1  0  0  0
 12 11  1  0  0  0  0
 12 13  1  0  0  0  0
 13 63  1  0  0  0  0
 14 15  1  6  0  0  0
 14 13  1  0  0  0  0
 14 16  1  0  0  0  0
 16 17  1  0  0  0  0
 16 64  1  0  0  0  0
 17 18  1  0  0  0  0
 18 65  1  0  0  0  0
 18 67  1  0  0  0  0
 19 17  2  0  0  0  0
 20 14  1  0  0  0  0
 20 23  2  0  0  0  0
 21 20  1  0  0  0  0
 22 21  1  0  0  0  0
 22 70  1  0  0  0  0
 22 69  1  0  0  0  0
 24 25  1  0  0  0  0
 25 26  1  0  0  0  0
 26 27  1  0  0  0  0
 27 29  1  0  0  0  0
 27 28  2  0  0  0  0
 28 37  1  0  0  0  0
 29 36  1  0  0  0  0
 30 35  1  0  0  0  0
 30 29  1  0  0  0  0
 31 30  1  0  0  0  0
 31 32  1  0  0  0  0
 32 33  1  0  0  0  0
 32 75  1  0  0  0  0
 33 77  1  0  0  0  0
 33 34  1  0  0  0  0
 34 80  1  0  0  0  0
 34 79  1  0  0  0  0
 35 81  1  0  0  0  0
 35 34  1  0  0  0  0
 36 37  2  0  0  0  0
 36 41  1  0  0  0  0
 37 38  1  0  0  0  0
 38 83  1  0  0  0  0
 38 39  2  0  0  0  0
 40 39  1  0  0  0  0
 40 44  1  0  0  0  0
 41 42  1  0  0  0  0
 41 40  2  0  0  0  0
 42 43  2  0  0  0  0
 43 44  1  0  0  0  0
 43 85  1  0  0  0  0
 44 45  1  0  0  0  0
 46 26  2  0  0  0  0
 47 24  2  0  0  0  0
 47 46  1  0  0  0  0
 49 48  3  0  0  0  0
 52  1  1  0  0  0  0
 54  3  1  0  0  0  0
 58  6  1  0  0  0  0
 59  7  1  0  0  0  0
 60  7  1  0  0  0  0
 62 13  1  0  0  0  0
 66 18  1  0  0  0  0
 68 21  1  0  0  0  0
 71 22  1  0  0  0  0
 72 30  1  0  0  0  0
 73 31  1  0  0  0  0
 74 31  1  0  0  0  0
 76 32  1  0  0  0  0
 78 33  1  0  0  0  0
 82 35  1  0  0  0  0
 84 42  1  0  0  0  0
 86 46  1  0  0  0  0
 87 47  1  0  0  0  0
M  END
