87
-1 1
C         0.823205   -7.133903    0.129273
N        -0.024773   -6.957736   -1.032450
C        -1.152913   -6.068263   -0.813178
C        -0.777889   -4.579033   -0.770580
N        -0.006218   -4.198626   -1.941726
C         1.123770   -5.078532   -2.196770
C         0.697379   -6.547985   -2.232628
C        -0.628911   -3.607525   -3.071916
O        -0.403954   -4.065578   -4.188741
C        -1.428514   -2.425867   -2.815422
C        -1.108069   -1.573045   -1.660484
S         0.642867   -0.694747   -1.804345
C         1.390142   -1.327289   -0.271915
C         2.923280   -1.462075   -0.312148
H         3.181542   -2.163748   -1.122767
N         3.424283   -1.963060    0.945656
C         3.273478   -3.239564    1.364193
C         3.816804   -3.539591    2.748104
O         2.729680   -4.101906    0.694234
C         3.623532   -0.117059   -0.543023
N         3.572546    0.347687   -1.808281
C         3.964788    1.690572   -2.157534
O         4.173025    0.473295    0.378333
C        -2.086408   -0.518703   -1.268926
O        -1.740973    0.229260   -0.190215
C        -2.712100    1.148991    0.016228
C        -2.550231    2.126432    1.091249
N        -3.518861    2.435566    1.903737
N        -1.373696    2.850986    1.310861
C        -0.284281    2.790139    0.311138
C        -0.025565    4.097784   -0.453188
C         1.036021    5.017481    0.142476
C         2.318856    4.254302    0.493437
C         2.079033    3.015694    1.364299
C         1.009084    2.107808    0.770930
C        -1.644168    3.670194    2.397763
C        -2.994510    3.397473    2.724141
C        -3.662185    4.045017    3.781395
N        -3.067756    4.936465    4.544087
C        -1.783066    5.169399    4.251355
C        -0.963702    4.608345    3.230134
C         0.338426    5.193825    3.420214
C         0.256150    6.051047    4.486241
N        -1.016557    6.041590    4.981367
H        -1.372384    6.559315    5.771117
C        -3.710246    0.977776   -0.898180
C        -3.302068   -0.104341   -1.737035
C        -2.099251   -1.868248   -3.927529
N        -2.692886   -1.375312   -4.804147
H         0.214119   -7.497270    0.973774
H         1.365958   -6.227721    0.466553
H         1.579202   -7.907107   -0.087070
H        -1.666297   -6.354878    0.120832
H        -1.869039   -6.214053   -1.641465
H        -0.195811   -4.362707    0.146544
H        -1.704452   -3.989991   -0.735816
H         1.871569   -4.912055   -1.402674
H         1.559669   -4.794623   -3.162695
H         1.574037   -7.204849   -2.364518
H         0.035956   -6.688468   -3.103924
H        -0.901000   -2.166628   -0.762997
H         1.001687   -2.344167   -0.120254
H         1.111420   -0.703534    0.590069
H         3.885260   -1.260037    1.516285
H         4.410831   -2.720063    3.174955
H         4.429045   -4.449585    2.693013
H         2.968689   -3.752887    3.414839
H         2.978152   -0.160226   -2.459330
H         4.531241    2.112693   -1.318326
H         3.083138    2.324842   -2.347161
H         4.598416    1.691937   -3.056630
H        -0.694835    2.110129   -0.437031
H        -0.977791    4.630194   -0.600561
H         0.311059    3.786863   -1.457193
H         0.631957    5.528578    1.026173
H         1.267702    5.814591   -0.582618
H         3.040249    4.930343    0.982336
H         2.798722    3.925744   -0.445522
H         1.799272    3.300247    2.388429
H         3.012373    2.438413    1.446901
H         0.754230    1.290647    1.461167
H         1.416898    1.625299   -0.132960
H        -4.710541    3.798876    3.978952
H         1.247770    5.017095    2.864606
H         1.031480    6.670469    4.930716
H        -4.614193    1.576955   -0.967545
H        -3.813409   -0.508130   -2.605939
