87
-1 1
C         1.576668   -6.836700    0.097856
N         0.342039   -6.809641   -0.665016
C        -0.646482   -5.870090   -0.170497
C        -0.379291   -4.407494   -0.561560
N        -0.215818   -4.317723   -2.006750
C         0.837899   -5.196908   -2.506122
C         0.534100   -6.642726   -2.099344
C        -1.162109   -3.881826   -2.890988
O        -1.210713   -4.249702   -4.050728
C        -2.150177   -2.844006   -2.416161
C        -1.776244   -1.770442   -1.678762
S         1.050675    0.034273   -2.529226
C         1.596287   -0.991644   -1.120360
C         3.110003   -1.005404   -0.795859
H         3.620407   -1.476835   -1.652667
N         3.389514   -1.760265    0.409194
C         3.354263   -3.097953    0.504158
C         3.694217   -3.670175    1.868503
O         3.047389   -3.837887   -0.424171
C         3.761070    0.369825   -0.566836
N         3.728391    1.189236   -1.625737
C         4.274679    2.519279   -1.592906
O         4.298755    0.638649    0.509755
C        -2.571907   -0.625964   -1.322831
O        -2.012538    0.226812   -0.424232
C        -2.852146    1.259542   -0.251644
C        -2.610174    2.341089    0.705121
N        -3.648965    2.975190    1.175948
N        -1.391159    2.830574    1.165924
C        -0.119266    2.302151    0.603673
C         0.725409    3.305620   -0.185973
C         1.693905    4.142245    0.642678
C         2.500627    3.293305    1.635593
C         1.654358    2.321646    2.470584
C         0.729683    1.494140    1.588425
C        -1.718514    3.870540    2.035333
C        -3.133458    3.931913    1.997114
C        -3.884413    4.866293    2.737504
N        -3.317534    5.746632    3.528818
C        -1.981444    5.679261    3.583567
C        -1.076312    4.806372    2.910011
C         0.231021    5.185149    3.385687
C         0.072073    6.218015    4.270831
N        -1.254484    6.517352    4.387322
H        -1.678254    7.224094    4.969655
C        -3.977315    1.085030   -1.018307
C        -3.798421   -0.136735   -1.710740
C        -3.467447   -2.970487   -2.963124
N        -4.549286   -3.064303   -3.368868
H         1.343876   -7.038357    1.156521
H         2.180542   -5.909831    0.043643
H         2.204532   -7.668666   -0.260813
H        -0.713174   -5.955690    0.926427
H        -1.632973   -6.153933   -0.581693
H         0.543660   -4.036014   -0.086940
H        -1.214354   -3.781152   -0.228709
H         1.789397   -4.852197   -2.072800
H         0.877162   -5.097425   -3.596686
H         1.344751   -7.309966   -2.433001
H        -0.388654   -6.961597   -2.615903
H        -0.749156   -1.734186   -1.316441
H         1.349456   -2.047835   -1.315376
H         1.064313   -0.708051   -0.195467
H         3.772910   -1.183697    1.155827
H         4.077081   -2.922499    2.576475
H         4.435864   -4.470202    1.739588
H         2.786349   -4.127389    2.289316
H         2.978390    0.955179   -2.313469
H         5.001091    2.590704   -0.772615
H         3.494686    3.282315   -1.433657
H         4.781944    2.744855   -2.543296
H        -0.452054    1.584967   -0.150831
H         0.065731    3.943922   -0.793951
H         1.284939    2.677005   -0.900705
H         1.141960    4.940324    1.157152
H         2.390885    4.662326   -0.035256
H         3.090538    3.949394    2.299514
H         3.235879    2.687203    1.083038
H         1.062381    2.842767    3.236630
H         2.329611    1.644375    3.016862
H         0.076998    0.838745    2.185841
H         1.354834    0.834728    0.968576
H        -4.975834    4.857525    2.651056
H         1.193632    4.768504    3.132790
H         0.827945    6.762899    4.831144
H        -4.818676    1.770043   -1.056821
H        -4.473985   -0.601261   -2.423090
