79
-1 1
C        31.017974   -1.732703   -1.967040
O        29.628973   -1.743190   -1.858168
C        29.097929   -2.992406   -1.533490
C        27.612199   -2.857960   -1.307378
O        27.423816   -2.105691   -0.139122
C        26.194577   -1.644801    0.161782
C        25.029924   -2.054818   -0.448988
C        26.154507   -0.663205    1.203104
O        27.301326   -0.265069    1.809700
C        28.188277    0.500529    1.017852
C        24.946301   -0.148535    1.603968
C        23.736687   -0.573073    1.000211
C        23.778606   -1.525147   -0.043327
N        22.649010   -1.953729   -0.678199
C        21.529814   -1.418627   -0.269581
N        21.351421   -0.509202    0.706714
C        22.424189   -0.084869    1.352303
N        22.307383    0.812613    2.358847
C        21.220053    1.498637    2.858322
C        19.928569    1.444794    2.458546
C        18.903266    2.231032    3.161850
C        19.412663    3.281462    4.113967
C        20.707903    3.192379    4.623839
O        21.071815    3.966028    5.693575
C        21.602713    5.223917    5.346237
C        21.694565    2.387603    3.991959
O        22.895001    2.339870    4.298782
S        19.356883    4.787724    2.167346
C        21.130060    4.868707    1.812466
C        21.469654    5.252264    0.369808
H        22.567228    5.295159    0.267979
N        21.007326    6.582255    0.060769
C        21.789654    7.515754   -0.539773
C        21.035643    8.737057   -1.035127
O        22.992251    7.397938   -0.684466
C        21.004599    4.293661   -0.746668
N        20.728403    3.018898   -0.379149
C        20.221912    2.083286   -1.352737
O        20.965723    4.670566   -1.904574
O        18.499092    3.985643    4.830740
C        17.643714    3.286929    5.713473
C        18.404971    2.454056    6.736980
F        18.737039    1.225347    6.216952
C        16.812235    4.348436    6.403379
F        16.000467    4.998801    5.515851
O        17.713165    1.999086    3.045062
H        31.328249   -0.711622   -2.225800
H        31.376339   -2.420681   -2.758735
H        31.509111   -2.020822   -1.016866
H        29.568561   -3.398315   -0.615498
H        29.273009   -3.723890   -2.349638
H        27.158045   -3.861120   -1.209179
H        27.149667   -2.352243   -2.173478
H        25.015916   -2.795780   -1.247384
H        27.688690    1.407886    0.635890
H        28.587912   -0.081471    0.172681
H        29.014583    0.802773    1.674413
H        24.968967    0.603259    2.395506
H        20.611792   -1.741829   -0.776134
H        23.132756    1.091994    2.900960
H        19.593365    0.748879    1.693096
H        21.827014    5.753996    6.282998
H        20.878353    5.814660    4.758889
H        22.536829    5.111815    4.769692
H        21.598856    3.895335    2.049537
H        21.621035    5.602800    2.468255
H        20.003979    6.719694    0.094691
H        20.624696    8.513216   -2.031563
H        21.735310    9.576794   -1.123533
H        20.202210    9.011321   -0.372050
H        20.467134    2.855549    0.589387
H        19.221474    2.369862   -1.720346
H        20.168319    1.090736   -0.888782
H        20.896030    2.041600   -2.219942
H        16.980360    2.617876    5.140720
H        17.775233    2.280198    7.627598
H        19.329344    2.977965    7.027859
H        17.479091    5.087038    6.880157
H        16.177475    3.879348    7.174893
