78
-1 1
C         3.866362   -0.545027   -2.718554
N         4.274160   -1.535567   -1.738672
C         4.674412   -1.271692   -0.458546
O         5.373546   -2.026914    0.190301
C         4.151320   -0.001090    0.169976
C         2.827922    0.283991    0.180995
S         0.416974   -2.194214    1.292262
C         1.444803   -3.296201    0.260502
C         0.888126   -3.629884   -1.138288
H        -0.153513   -3.969069   -1.030870
N         1.636322   -4.719846   -1.720072
C         1.109938   -5.547622   -2.663050
C         2.137388   -6.382818   -3.408516
O        -0.078034   -5.620294   -2.907852
C         0.880031   -2.437428   -2.118475
N         0.247661   -1.342282   -1.654430
C         0.099085   -0.136430   -2.424004
O         1.396654   -2.504581   -3.230640
C         2.169923    1.423225    0.765835
O         0.842477    1.507361    0.500906
C         0.365242    2.621872    1.071819
C        -1.046401    2.951452    0.893724
N        -1.449026    4.187371    0.787318
N        -2.058123    2.005908    0.774454
C        -1.818853    0.597644    1.209085
C        -1.346512    0.540591    2.672672
C        -2.476369    0.701422    3.684228
C        -3.532249   -0.381209    3.475712
C        -4.086786   -0.297037    2.055934
C        -2.974551   -0.375194    1.004223
C        -3.199585    2.734813    0.484738
C        -2.792143    4.090061    0.541328
C        -3.688762    5.153447    0.312980
N        -4.947715    4.950566   -0.008016
C        -5.307474    3.665816   -0.130768
C        -4.539374    2.485257    0.067905
C        -5.401430    1.392332   -0.297688
C        -6.608225    1.927853   -0.662671
N        -6.557168    3.290453   -0.551050
H        -7.283948    3.951181   -0.782350
C         1.377069    3.296637    1.704621
C         2.549335    2.518535    1.509721
C         5.114445    0.807373    0.850899
N         5.881932    1.493335    1.384422
C         4.594968   -2.832244   -2.295156
H         3.694748    0.427964   -2.247909
H         2.946891   -0.879979   -3.221812
H         4.661297   -0.421475   -3.476599
H         2.150025   -0.411535   -0.322986
H         1.572161   -4.260882    0.773820
H         2.459369   -2.871933    0.139568
H         2.643297   -4.638720   -1.678430
H         2.485392   -5.804839   -4.278618
H         1.657528   -7.300219   -3.770613
H         3.009547   -6.637832   -2.788597
H         0.002856   -1.367345   -0.642348
H         0.077238   -0.385643   -3.494000
H         0.922937    0.580103   -2.255871
H        -0.839621    0.367282   -2.150016
H        -0.990734    0.234396    0.592006
H        -0.551458    1.275001    2.859102
H        -0.872788   -0.446284    2.797070
H        -2.942510    1.698747    3.578004
H        -2.065063    0.654057    4.704841
H        -4.349963   -0.279229    4.207697
H        -3.071268   -1.370444    3.640981
H        -4.646638    0.646215    1.964115
H        -4.813238   -1.105757    1.873254
H        -3.358987   -0.292323   -0.022080
H        -2.497584   -1.368507    1.061231
H        -3.327515    6.183925    0.394242
H        -5.176145    0.333191   -0.306813
H        -7.509614    1.423252   -1.002120
H         1.270545    4.232621    2.244985
H         3.551919    2.727159    1.872755
H         3.760472   -3.149177   -2.939220
H         4.748443   -3.545343   -1.475411
H         5.524042   -2.798540   -2.893149
