-1 1
 OpenBabel05232414493D

 65 67  0  0  1  0  0  0  0  0999 V2000
    2.4016   -9.0537    1.4322 C   0  0  0  0  0  0  0  0  0  0  0  0
    1.4640   -8.8312    0.3594 N   0  0  0  0  0  0  0  0  0  0  0  0
    0.0766   -8.9330    0.5096 C   0  0  0  0  0  0  0  0  0  0  0  0
   -0.6051   -9.3549   -0.4130 O   0  0  0  0  0  0  0  0  0  0  0  0
   -0.4952   -8.4758    1.7864 C   0  0  1  0  0  3  0  0  0  0  0  0
    0.0343   -7.3677    2.4845 C   0  0  0  0  0  3  0  0  0  0  0  0
   -0.6046   -5.3812    1.4664 S   0  0  0  0  0  1  0  0  0  0  0  0
    0.1839   -4.1617    2.5651 C   0  0  0  0  0  0  0  0  0  0  0  0
    0.4951   -2.8065    1.9164 C   0  0  2  0  0  0  0  0  0  0  0  0
   -0.4448   -2.2603    1.7127 H   0  0  0  0  0  0  0  0  0  0  0  0
    1.2168   -3.0086    0.6915 N   0  0  0  0  0  0  0  0  0  0  0  0
    1.6281   -1.9647   -0.0644 C   0  0  0  0  0  0  0  0  0  0  0  0
    2.3379   -2.3359   -1.3523 C   0  0  0  0  0  0  0  0  0  0  0  0
    1.4760   -0.8049    0.2824 O   0  0  0  0  0  0  0  0  0  0  0  0
    1.3340   -2.0135    2.9309 C   0  0  0  0  0  0  0  0  0  0  0  0
    0.6177   -1.1469    3.6871 N   0  0  0  0  0  0  0  0  0  0  0  0
    1.1865   -0.3833    4.7691 C   0  0  0  0  0  0  0  0  0  0  0  0
    2.5201   -2.2367    3.1067 O   0  0  0  0  0  0  0  0  0  0  0  0
   -0.3254   -7.0417    3.8669 C   0  0  0  0  0  0  0  0  0  0  0  0
    0.5621   -6.2304    4.4922 O   0  0  0  0  0  0  0  0  0  0  0  0
    0.0467   -5.8630    5.6842 C   0  0  0  0  0  0  0  0  0  0  0  0
    0.6949   -4.7896    6.4190 C   0  0  0  0  0  0  0  0  0  0  0  0
    0.1033   -4.1545    7.4025 N   0  0  0  0  0  0  0  0  0  0  0  0
    1.9300   -4.2482    6.0873 N   0  0  0  0  0  0  0  0  0  0  0  0
    2.9441   -4.6942    5.1460 C   0  0  0  0  0  0  0  0  0  0  0  0
    2.0960   -3.1724    6.9124 C   0  0  0  0  0  0  0  0  0  0  0  0
    0.9577   -3.1321    7.7369 C   0  0  0  0  0  0  0  0  0  0  0  0
    0.8244   -2.1113    8.7028 C   0  0  0  0  0  0  0  0  0  0  0  0
    1.7374   -1.1677    8.8607 N   0  0  0  0  0  0  0  0  0  0  0  0
    2.8027   -1.2335    8.0511 C   0  0  0  0  0  0  0  0  0  0  0  0
    3.0903   -2.1886    7.0471 C   0  0  0  0  0  0  0  0  0  0  0  0
    4.3176   -1.7956    6.4203 C   0  0  0  0  0  0  0  0  0  0  0  0
    4.7256   -0.6499    7.0564 C   0  0  0  0  0  0  0  0  0  0  0  0
    3.8245   -0.3149    8.0367 N   0  0  0  0  0  0  0  0  0  0  0  0
    3.8659    0.4871    8.6478 H   0  0  0  0  0  0  0  0  0  0  0  0
   -1.1602   -6.4834    5.8687 C   0  0  0  0  0  0  0  0  0  0  0  0
   -1.3991   -7.2545    4.6951 C   0  0  0  0  0  0  0  0  0  0  0  0
   -1.7897   -8.9661    2.1028 C   0  0  0  0  0  0  0  0  0  0  0  0
   -2.8355   -9.3635    2.4250 N   0  0  0  0  0  0  0  0  0  0  0  0
    2.0007   -9.0003   -0.9666 C   0  0  0  0  0  0  0  0  0  0  0  0
    1.8690   -9.2561    2.3694 H   0  0  0  0  0  0  0  0  0  0  0  0
    3.0776   -8.1919    1.5885 H   0  0  0  0  0  0  0  0  0  0  0  0
    3.0345   -9.9344    1.2107 H   0  0  0  0  0  0  0  0  0  0  0  0
    1.0767   -7.1269    2.2807 H   0  0  0  0  0  0  0  0  0  0  0  0
    1.1414   -4.5733    2.9130 H   0  0  0  0  0  0  0  0  0  0  0  0
   -0.4378   -3.9770    3.4544 H   0  0  0  0  0  0  0  0  0  0  0  0
    1.1739   -3.9554    0.3193 H   0  0  0  0  0  0  0  0  0  0  0  0
    2.1088   -1.5791   -2.1130 H   0  0  0  0  0  0  0  0  0  0  0  0
    2.0611   -3.3332   -1.7219 H   0  0  0  0  0  0  0  0  0  0  0  0
    3.4233   -2.3196   -1.1714 H   0  0  0  0  0  0  0  0  0  0  0  0
   -0.3451   -0.9845    3.4274 H   0  0  0  0  0  0  0  0  0  0  0  0
    2.2509   -0.6400    4.8395 H   0  0  0  0  0  0  0  0  0  0  0  0
    0.7080   -0.6264    5.7318 H   0  0  0  0  0  0  0  0  0  0  0  0
    1.0946    0.6992    4.5861 H   0  0  0  0  0  0  0  0  0  0  0  0
    2.6952   -5.6929    4.7810 H   0  0  0  0  0  0  0  0  0  0  0  0
    3.9127   -4.7312    5.6660 H   0  0  0  0  0  0  0  0  0  0  0  0
    3.0068   -3.9950    4.2983 H   0  0  0  0  0  0  0  0  0  0  0  0
   -0.0625   -2.0817    9.3443 H   0  0  0  0  0  0  0  0  0  0  0  0
    4.8115   -2.2714    5.5782 H   0  0  0  0  0  0  0  0  0  0  0  0
    5.6029   -0.0339    6.8726 H   0  0  0  0  0  0  0  0  0  0  0  0
   -1.8061   -6.3562    6.7331 H   0  0  0  0  0  0  0  0  0  0  0  0
   -2.2687   -7.8598    4.4560 H   0  0  0  0  0  0  0  0  0  0  0  0
    2.8811   -8.3492   -1.1022 H   0  0  0  0  0  0  0  0  0  0  0  0
    1.2327   -8.7371   -1.7028 H   0  0  0  0  0  0  0  0  0  0  0  0
    2.3130  -10.0453   -1.1640 H   0  0  0  0  0  0  0  0  0  0  0  0
  1 42  1  0  0  0  0
  1 41  1  0  0  0  0
  2  3  1  0  0  0  0
  2  1  1  0  0  0  0
  3  5  1  0  0  0  0
  4  3  2  0  0  0  0
  5 38  1  6  0  0  0
  5  6  1  0  0  0  0
  6 19  1  0  0  0  0
  7  8  1  0  0  0  0
  8 45  1  0  0  0  0
  8 46  1  0  0  0  0
  9 10  1  6  0  0  0
  9  8  1  0  0  0  0
  9 15  1  0  0  0  0
 11  9  1  0  0  0  0
 12 14  2  0  0  0  0
 12 11  1  0  0  0  0
 13 50  1  0  0  0  0
 13 12  1  0  0  0  0
 15 18  2  0  0  0  0
 15 16  1  0  0  0  0
 16 17  1  0  0  0  0
 17 52  1  0  0  0  0
 17 53  1  0  0  0  0
 19 20  1  0  0  0  0
 19 37  2  0  0  0  0
 20 21  1  0  0  0  0
 21 36  2  0  0  0  0
 21 22  1  0  0  0  0
 22 23  2  0  0  0  0
 23 27  1  0  0  0  0
 24 22  1  0  0  0  0
 24 26  1  0  0  0  0
 25 56  1  0  0  0  0
 25 24  1  0  0  0  0
 26 31  2  0  0  0  0
 26 27  1  0  0  0  0
 27 28  2  0  0  0  0
 28 29  1  0  0  0  0
 28 58  1  0  0  0  0
 30 29  2  0  0  0  0
 31 30  1  0  0  0  0
 32 31  1  0  0  0  0
 32 33  2  0  0  0  0
 33 34  1  0  0  0  0
 34 30  1  0  0  0  0
 34 35  1  0  0  0  0
 36 61  1  0  0  0  0
 37 36  1  0  0  0  0
 38 39  3  0  0  0  0
 40  2  1  0  0  0  0
 43  1  1  0  0  0  0
 44  6  1  0  0  0  0
 47 11  1  0  0  0  0
 48 13  1  0  0  0  0
 49 13  1  0  0  0  0
 51 16  1  0  0  0  0
 54 17  1  0  0  0  0
 55 25  1  0  0  0  0
 57 25  1  0  0  0  0
 59 32  1  0  0  0  0
 60 33  1  0  0  0  0
 62 37  1  0  0  0  0
 63 40  1  0  0  0  0
 64 40  1  0  0  0  0
 65 40  1  0  0  0  0
M  END
