-1 1
 OpenBabel05192410563D

 76 79  0  0  1  0  0  0  0  0999 V2000
    4.1956    5.4844   -7.1361 C   0  0  0  0  0  0  0  0  0  0  0  0
    3.1324    6.0149   -6.4080 O   0  0  0  0  0  0  0  0  0  0  0  0
    2.3575    5.0476   -5.7631 C   0  0  0  0  0  0  0  0  0  0  0  0
    1.2699    5.7742   -4.9852 C   0  0  0  0  0  0  0  0  0  0  0  0
    0.4022    4.8764   -4.3428 O   0  0  0  0  0  0  0  0  0  0  0  0
    0.7674    4.2984   -3.1814 C   0  0  0  0  0  0  0  0  0  0  0  0
    1.9229    4.5651   -2.4857 C   0  0  0  0  0  0  0  0  0  0  0  0
   -0.1643    3.3176   -2.6865 C   0  0  0  0  0  0  0  0  0  0  0  0
   -1.2194    3.0869   -3.4804 O   0  0  0  0  0  0  0  0  0  0  0  0
   -2.1322    2.0848   -3.1021 C   0  0  0  0  0  0  0  0  0  0  0  0
    0.0845    2.6891   -1.4882 C   0  0  0  0  0  0  0  0  0  0  0  0
    1.2669    2.9787   -0.7552 C   0  0  0  0  0  0  0  0  0  0  0  0
    2.2123    3.8897   -1.2699 C   0  0  0  0  0  0  0  0  0  0  0  0
    3.4098    4.1079   -0.6578 N   0  0  0  0  0  0  0  0  0  0  0  0
    3.6433    3.3941    0.4134 C   0  0  0  0  0  0  0  0  0  0  0  0
    2.8180    2.5194    1.0185 N   0  0  0  0  0  0  0  0  0  0  0  0
    1.6286    2.3370    0.4774 C   0  0  0  0  0  0  0  0  0  0  0  0
    0.7181    1.5143    1.0767 N   0  0  0  0  0  0  0  0  0  0  0  0
    0.8915    0.4005    1.8514 C   0  0  0  0  0  0  0  0  0  0  0  0
    2.0496   -0.1029    2.3480 C   0  0  0  0  0  0  0  0  0  0  0  0
    2.0542   -1.3681    3.0692 C   0  0  0  0  0  0  0  0  0  0  0  0
    0.7772   -2.2470    2.9328 C   0  0  1  0  0  0  0  0  0  0  0  0
   -0.4504   -1.5260    2.5765 C   0  0  2  0  0  3  0  0  0  0  0  0
   -1.6125   -2.2817    2.5439 O   0  0  0  0  0  0  0  0  0  0  0  0
   -2.6446   -1.8805    3.4279 C   0  0  0  0  0  0  0  0  0  0  0  0
   -3.7388   -2.9061    3.3493 C   0  0  0  0  0  0  0  0  0  0  0  0
   -5.1790   -2.4827    3.4252 C   0  0  0  0  0  0  0  0  0  0  0  0
   -4.6018   -2.9493    2.1182 C   0  0  0  0  0  0  0  0  0  0  0  0
   -0.4554   -0.2732    2.0129 C   0  0  0  0  0  0  0  0  0  0  0  0
   -1.4608    0.3491    1.5513 O   0  0  0  0  0  0  0  0  0  0  0  0
    1.2057   -3.6128    1.7172 S   0  0  0  0  0  0  0  0  0  0  0  0
    0.8728   -2.8727    0.0816 C   0  0  0  0  0  0  0  0  0  0  0  0
   -0.4992   -3.1499   -0.5828 C   0  0  2  0  0  0  0  0  0  0  0  0
   -0.3361   -3.1219   -1.6689 H   0  0  0  0  0  0  0  0  0  0  0  0
   -1.5155   -2.1606   -0.3212 N   0  0  0  0  0  0  0  0  0  0  0  0
   -2.0556   -1.3804   -1.2924 C   0  0  0  0  0  0  0  0  0  0  0  0
   -3.2412   -0.5608   -0.8251 C   0  0  0  0  0  0  0  0  0  0  0  0
   -1.6551   -1.3604   -2.4480 O   0  0  0  0  0  0  0  0  0  0  0  0
   -0.9496   -4.5838   -0.2648 C   0  0  0  0  0  0  0  0  0  0  0  0
   -1.8257   -4.7120    0.7633 N   0  0  0  0  0  0  0  0  0  0  0  0
   -2.1171   -6.0098    1.3152 C   0  0  0  0  0  0  0  0  0  0  0  0
   -0.5041   -5.5265   -0.8970 O   0  0  0  0  0  0  0  0  0  0  0  0
    0.5610   -3.1617    4.5082 Cl  0  0  0  0  0  0  0  0  0  0  0  0
    3.0129   -1.7606    3.6981 O   0  0  0  0  0  0  0  0  0  0  0  0
    4.7395    6.3191   -7.5992 H   0  0  0  0  0  0  0  0  0  0  0  0
    3.8488    4.8018   -7.9372 H   0  0  0  0  0  0  0  0  0  0  0  0
    4.8977    4.9205   -6.4911 H   0  0  0  0  0  0  0  0  0  0  0  0
    2.9748    4.4299   -5.0812 H   0  0  0  0  0  0  0  0  0  0  0  0
    1.8832    4.3556   -6.4879 H   0  0  0  0  0  0  0  0  0  0  0  0
    0.6504    6.3495   -5.6867 H   0  0  0  0  0  0  0  0  0  0  0  0
    1.7226    6.4886   -4.2770 H   0  0  0  0  0  0  0  0  0  0  0  0
    2.6725    5.2697   -2.8433 H   0  0  0  0  0  0  0  0  0  0  0  0
   -2.9017    2.0562   -3.8831 H   0  0  0  0  0  0  0  0  0  0  0  0
   -2.6116    2.3257   -2.1369 H   0  0  0  0  0  0  0  0  0  0  0  0
   -1.6606    1.0889   -3.0299 H   0  0  0  0  0  0  0  0  0  0  0  0
   -0.5998    1.9226   -1.1242 H   0  0  0  0  0  0  0  0  0  0  0  0
    4.6208    3.5238    0.8938 H   0  0  0  0  0  0  0  0  0  0  0  0
   -0.2861    1.5772    0.8492 H   0  0  0  0  0  0  0  0  0  0  0  0
    2.9874    0.4435    2.2773 H   0  0  0  0  0  0  0  0  0  0  0  0
   -3.0111   -0.8835    3.1259 H   0  0  0  0  0  0  0  0  0  0  0  0
   -2.2381   -1.8105    4.4509 H   0  0  0  0  0  0  0  0  0  0  0  0
   -3.4847   -3.8718    3.7988 H   0  0  0  0  0  0  0  0  0  0  0  0
   -5.3901   -1.4156    3.5386 H   0  0  0  0  0  0  0  0  0  0  0  0
   -5.8799   -3.1370    3.9492 H   0  0  0  0  0  0  0  0  0  0  0  0
   -4.4051   -2.1985    1.3490 H   0  0  0  0  0  0  0  0  0  0  0  0
   -4.8995   -3.9252    1.7276 H   0  0  0  0  0  0  0  0  0  0  0  0
    1.6539   -3.3178   -0.5505 H   0  0  0  0  0  0  0  0  0  0  0  0
    1.0609   -1.7904    0.1161 H   0  0  0  0  0  0  0  0  0  0  0  0
   -1.8118   -2.0035    0.6407 H   0  0  0  0  0  0  0  0  0  0  0  0
   -3.0088   -0.0815    0.1381 H   0  0  0  0  0  0  0  0  0  0  0  0
   -4.1079   -1.2288   -0.6990 H   0  0  0  0  0  0  0  0  0  0  0  0
   -3.4954    0.1853   -1.5860 H   0  0  0  0  0  0  0  0  0  0  0  0
   -1.9074   -3.9194    1.3995 H   0  0  0  0  0  0  0  0  0  0  0  0
   -1.3547   -6.3225    2.0501 H   0  0  0  0  0  0  0  0  0  0  0  0
   -2.1316   -6.7493    0.5043 H   0  0  0  0  0  0  0  0  0  0  0  0
   -3.0993   -5.9940    1.8104 H   0  0  0  0  0  0  0  0  0  0  0  0
  1 47  1  0  0  0  0
  1  2  1  0  0  0  0
  2  3  1  0  0  0  0
  3 48  1  0  0  0  0
  3  4  1  0  0  0  0
  4  5  1  0  0  0  0
  4 51  1  0  0  0  0
  5  6  1  0  0  0  0
  6  8  2  0  0  0  0
  6  7  1  0  0  0  0
  7 13  2  0  0  0  0
  8 11  1  0  0  0  0
  9 10  1  0  0  0  0
  9  8  1  0  0  0  0
 10 55  1  0  0  0  0
 10 54  1  0  0  0  0
 11 56  1  0  0  0  0
 11 12  2  0  0  0  0
 12 17  1  0  0  0  0
 13 12  1  0  0  0  0
 13 14  1  0  0  0  0
 14 15  2  0  0  0  0
 15 57  1  0  0  0  0
 15 16  1  0  0  0  0
 17 16  2  0  0  0  0
 17 18  1  0  0  0  0
 18 19  1  0  0  0  0
 19 29  1  0  0  0  0
 19 20  2  0  0  0  0
 20 21  1  0  0  0  0
 21 44  2  0  0  0  0
 22 21  1  0  0  0  0
 22 43  1  1  0  0  0
 23 24  1  6  0  0  0
 23 22  1  0  0  0  0
 24 25  1  0  0  0  0
 25 61  1  0  0  0  0
 26 27  1  0  0  0  0
 26 25  1  0  0  0  0
 26 62  1  0  0  0  0
 27 63  1  0  0  0  0
 27 64  1  0  0  0  0
 28 26  1  0  0  0  0
 28 27  1  0  0  0  0
 29 23  1  0  0  0  0
 30 29  2  0  0  0  0
 31 22  1  0  0  0  0
 32 68  1  0  0  0  0
 32 31  1  0  0  0  0
 33 34  1  6  0  0  0
 33 35  1  0  0  0  0
 33 39  1  0  0  0  0
 33 32  1  0  0  0  0
 35 69  1  0  0  0  0
 36 37  1  0  0  0  0
 36 35  1  0  0  0  0
 37 71  1  0  0  0  0
 37 70  1  0  0  0  0
 38 36  2  0  0  0  0
 39 40  1  0  0  0  0
 40 41  1  0  0  0  0
 40 73  1  0  0  0  0
 41 76  1  0  0  0  0
 41 74  1  0  0  0  0
 42 39  2  0  0  0  0
 45  1  1  0  0  0  0
 46  1  1  0  0  0  0
 49  3  1  0  0  0  0
 50  4  1  0  0  0  0
 52  7  1  0  0  0  0
 53 10  1  0  0  0  0
 58 18  1  0  0  0  0
 59 20  1  0  0  0  0
 60 25  1  0  0  0  0
 65 28  1  0  0  0  0
 66 28  1  0  0  0  0
 67 32  1  0  0  0  0
 72 37  1  0  0  0  0
 75 41  1  0  0  0  0
M  END
