76
-1 1
C        23.072632    4.742833   -7.025659
O        22.100695    5.414456   -6.286795
C        21.223130    4.561950   -5.611248
C        20.256474    5.430481   -4.819262
O        19.294800    4.659237   -4.148133
C        19.611851    4.038990   -2.993490
C        20.806121    4.165247   -2.322538
C        18.581393    3.175566   -2.478719
O        17.482015    3.082230   -3.239451
C        16.425803    2.267107   -2.782217
C        18.783968    2.509531   -1.291718
C        20.001571    2.667350   -0.578292
C        21.035027    3.467077   -1.107499
N        22.255082    3.562116   -0.505281
C        22.414508    2.851736    0.580414
N        21.498799    2.091734    1.211632
C        20.296498    2.024129    0.672248
N        19.300142    1.338716    1.302220
C        19.352601    0.343976    2.251652
C        20.427589   -0.142165    2.911880
C        20.281812   -1.287381    3.822962
C        18.990832   -2.059950    3.676185
C        17.856137   -1.438978    3.185033
O        16.633764   -2.050726    3.203765
C        15.743060   -1.556743    4.189012
C        14.326720   -1.830376    3.773723
C        13.241441   -0.899236    4.242535
C        13.670820   -0.892851    2.801544
C        17.968290   -0.218614    2.451635
O        17.009674    0.384492    1.951902
S        20.198596   -3.382984    1.903735
C        20.280995   -2.421277    0.355704
C        19.141315   -2.610574   -0.655029
H        19.277455   -1.888679   -1.470511
N        17.840918   -2.322513   -0.084021
C        17.006612   -1.373913   -0.581593
C        15.612014   -1.388657   -0.003017
O        17.339764   -0.602303   -1.472162
C        19.121529   -3.984544   -1.349076
N        19.000619   -5.044861   -0.508593
C        19.005895   -6.403240   -0.981731
O        19.176201   -4.087617   -2.562686
Cl        18.783993   -3.397822    4.766780
O        21.102821   -1.560052    4.672925
H        23.708443    5.494932   -7.512714
H        22.625712    4.098536   -7.808613
H        23.710583    4.103199   -6.384725
H        21.772037    3.877406   -4.934967
H        20.646888    3.928953   -6.315778
H        19.701032    6.074693   -5.514746
H        20.814182    6.087252   -4.130297
H        21.625520    4.778410   -2.695217
H        15.650351    2.308375   -3.557005
H        16.009487    2.657833   -1.836107
H        16.739920    1.223371   -2.618497
H        18.039495    1.789040   -0.950417
H        23.403200    2.881355    1.054440
H        18.338516    1.462479    0.982243
H        21.409533    0.316377    2.822787
H        15.883816   -0.467751    4.303388
H        15.971097   -2.033697    5.159823
H        14.069699   -2.891653    3.695910
H        13.530326   -0.050428    4.869319
H        12.269519   -1.329957    4.495926
H        14.285888   -0.062016    2.444977
H        12.993585   -1.313668    2.054357
H        21.235854   -2.651306   -0.143640
H        20.311147   -1.352467    0.609928
H        17.556393   -2.856580    0.731538
H        15.192081   -0.378191   -0.060566
H        15.607173   -1.721808    1.042088
H        14.994819   -2.068994   -0.611728
H        19.145119   -4.859328    0.488970
H        19.956810   -6.914768   -0.754849
H        18.873506   -6.385601   -2.071305
H        18.186104   -6.982756   -0.528122
