-1 1
 OpenBabel05232414493D

 90 91  0  0  1  0  0  0  0  0999 V2000
    2.2392    2.3019   -5.3711 O   0  0  0  0  0  0  0  0  0  0  0  0
    2.5514    2.3121   -6.5834 C   0  0  0  0  0  0  0  0  0  0  0  0
    1.7635    1.5334   -7.4088 N   0  0  0  0  0  0  0  0  0  0  0  0
    1.7196    1.4270   -8.8471 C   0  0  0  0  0  0  0  0  0  0  0  0
    2.7223    0.4271   -9.4249 C   0  0  0  0  0  0  0  0  0  0  0  0
    2.7651    0.4876  -10.9472 C   0  0  0  0  0  0  0  0  0  0  0  0
    3.7712   -0.4788  -11.5630 C   0  0  0  0  0  0  0  0  0  0  0  0
    3.8437   -0.4104  -13.0886 C   0  0  1  0  0  0  0  0  0  0  0  0
    4.0504    0.6220  -13.3961 H   0  0  0  0  0  0  0  0  0  0  0  0
    4.9246   -1.3687  -13.6188 C   0  0  0  0  0  0  0  0  0  0  0  0
    6.1900   -0.8838  -13.8072 N   0  0  0  0  0  0  0  0  0  0  0  0
    7.1075   -1.7082  -14.5847 C   0  0  0  0  0  0  0  0  0  0  0  0
    7.1057   -1.1918  -16.0287 C   0  0  0  0  0  0  0  0  0  0  0  0
    7.4632    0.2163  -16.0944 N   0  0  0  0  0  0  0  0  0  0  0  0
    6.5384    1.0200  -15.3008 C   0  0  0  0  0  0  0  0  0  0  0  0
    6.5410    0.5301  -13.8482 C   0  0  0  0  0  0  0  0  0  0  0  0
    8.7995    0.5980  -16.2057 C   0  0  0  0  0  0  0  0  0  0  0  0
    9.1535    1.9609  -16.3176 C   0  0  0  0  0  0  0  0  0  0  0  0
   10.4771    2.3544  -16.4681 C   0  0  0  0  0  0  0  0  0  0  0  0
   11.5074    1.4148  -16.5216 C   0  0  0  0  0  0  0  0  0  0  0  0
   11.1753    0.0676  -16.4178 C   0  0  0  0  0  0  0  0  0  0  0  0
    9.8525   -0.3393  -16.2557 C   0  0  0  0  0  0  0  0  0  0  0  0
    4.6362   -2.5339  -13.8267 O   0  0  0  0  0  0  0  0  0  0  0  0
    2.5813   -0.7668  -13.6940 N   0  0  0  0  0  0  0  0  0  0  0  0
    2.4282   -0.6527  -15.0349 C   0  0  0  0  0  0  0  0  0  0  0  0
    1.1473   -1.2527  -15.6054 C   0  0  0  0  0  0  0  0  0  0  0  0
    0.4687   -0.3504  -16.6053 C   0  0  0  0  0  0  0  0  0  0  0  0
    1.0528   -0.1034  -17.8535 C   0  0  0  0  0  0  0  0  0  0  0  0
    0.4350    0.7458  -18.7680 C   0  0  0  0  0  0  0  0  0  0  0  0
   -0.7755    1.3622  -18.4496 C   0  0  0  0  0  0  0  0  0  0  0  0
   -1.3623    1.1257  -17.2085 C   0  0  0  0  0  0  0  0  0  0  0  0
   -0.7414    0.2758  -16.2935 C   0  0  0  0  0  0  0  0  0  0  0  0
    3.2684   -0.1226  -15.7430 O   0  0  0  0  0  0  0  0  0  0  0  0
    3.6375    3.1283   -7.0660 C   0  0  0  0  0  3  0  0  0  0  0  0
    3.9845    3.4877   -8.3691 C   0  0  0  0  0  3  0  0  0  0  0  0
    2.5482    5.1001   -9.2851 S   0  0  0  0  0  1  0  0  0  0  0  0
    1.6859    5.4282   -7.7362 C   0  0  0  0  0  0  0  0  0  0  0  0
    0.3512    4.6871   -7.5172 C   0  0  2  0  0  0  0  0  0  0  0  0
    0.5191    3.6037   -7.5517 H   0  0  0  0  0  0  0  0  0  0  0  0
   -0.6208    4.9909   -8.5344 N   0  0  0  0  0  0  0  0  0  0  0  0
   -1.2648    4.0631   -9.2753 C   0  0  0  0  0  0  0  0  0  0  0  0
   -2.1743    4.6341  -10.3507 C   0  0  0  0  0  0  0  0  0  0  0  0
   -1.1243    2.8575   -9.1447 O   0  0  0  0  0  0  0  0  0  0  0  0
   -0.2036    5.0898   -6.1443 C   0  0  0  0  0  0  0  0  0  0  0  0
    0.3068    4.4037   -5.0990 N   0  0  0  0  0  0  0  0  0  0  0  0
   -0.0203    4.7357   -3.7386 C   0  0  0  0  0  0  0  0  0  0  0  0
   -1.0055    6.0100   -6.0371 O   0  0  0  0  0  0  0  0  0  0  0  0
    1.0146    1.0995   -6.8850 H   0  0  0  0  0  0  0  0  0  0  0  0
    1.8589    2.4201   -9.3029 H   0  0  0  0  0  0  0  0  0  0  0  0
    0.6940    1.1455   -9.1262 H   0  0  0  0  0  0  0  0  0  0  0  0
    2.4677   -0.5943   -9.0897 H   0  0  0  0  0  0  0  0  0  0  0  0
    3.7222    0.6439   -9.0121 H   0  0  0  0  0  0  0  0  0  0  0  0
    3.0107    1.5173  -11.2621 H   0  0  0  0  0  0  0  0  0  0  0  0
    1.7569    0.2917  -11.3512 H   0  0  0  0  0  0  0  0  0  0  0  0
    3.5463   -1.5197  -11.2693 H   0  0  0  0  0  0  0  0  0  0  0  0
    4.7775   -0.2660  -11.1657 H   0  0  0  0  0  0  0  0  0  0  0  0
    6.7641   -2.7475  -14.5317 H   0  0  0  0  0  0  0  0  0  0  0  0
    8.1162   -1.6368  -14.1456 H   0  0  0  0  0  0  0  0  0  0  0  0
    6.0816   -1.2958  -16.4234 H   0  0  0  0  0  0  0  0  0  0  0  0
    7.7621   -1.7858  -16.6772 H   0  0  0  0  0  0  0  0  0  0  0  0
    5.5211    0.9050  -15.7089 H   0  0  0  0  0  0  0  0  0  0  0  0
    6.8009    2.0823  -15.3453 H   0  0  0  0  0  0  0  0  0  0  0  0
    5.8698    1.1254  -13.2204 H   0  0  0  0  0  0  0  0  0  0  0  0
    7.5527    0.6428  -13.4230 H   0  0  0  0  0  0  0  0  0  0  0  0
    8.3785    2.7275  -16.3141 H   0  0  0  0  0  0  0  0  0  0  0  0
   10.7034    3.4200  -16.5549 H   0  0  0  0  0  0  0  0  0  0  0  0
   12.5459    1.7289  -16.6403 H   0  0  0  0  0  0  0  0  0  0  0  0
   11.9594   -0.6932  -16.4489 H   0  0  0  0  0  0  0  0  0  0  0  0
    9.6509   -1.4049  -16.1535 H   0  0  0  0  0  0  0  0  0  0  0  0
    1.9626   -1.3792  -13.1794 H   0  0  0  0  0  0  0  0  0  0  0  0
    0.4504   -1.5175  -14.7971 H   0  0  0  0  0  0  0  0  0  0  0  0
    1.4528   -2.1949  -16.0901 H   0  0  0  0  0  0  0  0  0  0  0  0
    2.0100   -0.5687  -18.0947 H   0  0  0  0  0  0  0  0  0  0  0  0
    0.9051    0.9313  -19.7366 H   0  0  0  0  0  0  0  0  0  0  0  0
   -1.2583    2.0293  -19.1675 H   0  0  0  0  0  0  0  0  0  0  0  0
   -2.3065    1.6080  -16.9457 H   0  0  0  0  0  0  0  0  0  0  0  0
   -1.2042    0.1007  -15.3184 H   0  0  0  0  0  0  0  0  0  0  0  0
    4.1001    3.6806   -6.2441 H   0  0  0  0  0  0  0  0  0  0  0  0
    3.8167    2.8233   -9.2145 H   0  0  0  0  0  0  0  0  0  0  0  0
    4.8862    4.0938   -8.4787 H   0  0  0  0  0  0  0  0  0  0  0  0
    1.5095    6.5108   -7.6244 H   0  0  0  0  0  0  0  0  0  0  0  0
    2.3534    5.1177   -6.9115 H   0  0  0  0  0  0  0  0  0  0  0  0
   -0.8835    5.9633   -8.6209 H   0  0  0  0  0  0  0  0  0  0  0  0
   -1.6092    4.6743  -11.2942 H   0  0  0  0  0  0  0  0  0  0  0  0
   -2.5355    5.6465  -10.1194 H   0  0  0  0  0  0  0  0  0  0  0  0
   -3.0276    3.9582  -10.4892 H   0  0  0  0  0  0  0  0  0  0  0  0
    0.9869    3.6424   -5.2471 H   0  0  0  0  0  0  0  0  0  0  0  0
   -0.5365    3.9027   -3.2321 H   0  0  0  0  0  0  0  0  0  0  0  0
   -0.6841    5.6101   -3.7456 H   0  0  0  0  0  0  0  0  0  0  0  0
    0.8868    4.9740   -3.1596 H   0  0  0  0  0  0  0  0  0  0  0  0
  2  1  2  0  0  0  0
  3 48  1  0  0  0  0
  3  2  1  0  0  0  0
  4  3  1  0  0  0  0
  5 51  1  0  0  0  0
  5 52  1  0  0  0  0
  5  4  1  0  0  0  0
  6  5  1  0  0  0  0
  7 55  1  0  0  0  0
  7 56  1  0  0  0  0
  7  6  1  0  0  0  0
  8  9  1  6  0  0  0
  8  7  1  0  0  0  0
 10  8  1  0  0  0  0
 11 10  1  0  0  0  0
 12 57  1  0  0  0  0
 12 58  1  0  0  0  0
 12 11  1  0  0  0  0
 13 12  1  0  0  0  0
 14 13  1  0  0  0  0
 14 15  1  0  0  0  0
 15 16  1  0  0  0  0
 16 11  1  0  0  0  0
 16 64  1  0  0  0  0
 16 63  1  0  0  0  0
 17 14  1  0  0  0  0
 18 65  1  0  0  0  0
 18 17  2  0  0  0  0
 19 18  1  0  0  0  0
 20 19  2  0  0  0  0
 20 21  1  0  0  0  0
 21 22  2  0  0  0  0
 22 17  1  0  0  0  0
 22 69  1  0  0  0  0
 23 10  2  0  0  0  0
 24 70  1  0  0  0  0
 24  8  1  0  0  0  0
 25 24  1  0  0  0  0
 26 25  1  0  0  0  0
 26 71  1  0  0  0  0
 27 32  1  0  0  0  0
 27 26  1  0  0  0  0
 28 27  2  0  0  0  0
 29 30  2  0  0  0  0
 29 28  1  0  0  0  0
 30 31  1  0  0  0  0
 31 76  1  0  0  0  0
 31 32  2  0  0  0  0
 32 77  1  0  0  0  0
 33 25  2  0  0  0  0
 34  2  1  0  0  0  0
 34 78  1  0  0  0  0
 35 34  1  0  0  0  0
 36 37  1  0  0  0  0
 37 81  1  0  0  0  0
 37 38  1  0  0  0  0
 37 82  1  0  0  0  0
 38 39  1  6  0  0  0
 38 44  1  0  0  0  0
 40 38  1  0  0  0  0
 41 43  2  0  0  0  0
 41 40  1  0  0  0  0
 42 85  1  0  0  0  0
 42 41  1  0  0  0  0
 44 47  2  0  0  0  0
 44 45  1  0  0  0  0
 45 46  1  0  0  0  0
 46 88  1  0  0  0  0
 46 90  1  0  0  0  0
 49  4  1  0  0  0  0
 50  4  1  0  0  0  0
 53  6  1  0  0  0  0
 54  6  1  0  0  0  0
 59 13  1  0  0  0  0
 60 13  1  0  0  0  0
 61 15  1  0  0  0  0
 62 15  1  0  0  0  0
 66 19  1  0  0  0  0
 67 20  1  0  0  0  0
 68 21  1  0  0  0  0
 72 26  1  0  0  0  0
 73 28  1  0  0  0  0
 74 29  1  0  0  0  0
 75 30  1  0  0  0  0
 79 35  1  0  0  0  0
 80 35  1  0  0  0  0
 83 40  1  0  0  0  0
 84 42  1  0  0  0  0
 86 42  1  0  0  0  0
 87 45  1  0  0  0  0
 89 46  1  0  0  0  0
M  END
