90
-1 1
O         2.239224    2.301896   -5.371066
C         2.551412    2.312072   -6.583355
N         1.763482    1.533385   -7.408823
C         1.719577    1.426972   -8.847073
C         2.722325    0.427116   -9.424928
C         2.765066    0.487608  -10.947223
C         3.771213   -0.478795  -11.562972
C         3.843670   -0.410427  -13.088561
H         4.050422    0.622044  -13.396123
C         4.924610   -1.368712  -13.618849
N         6.189999   -0.883820  -13.807172
C         7.107514   -1.708241  -14.584681
C         7.105713   -1.191756  -16.028718
N         7.463249    0.216290  -16.094443
C         6.538417    1.020020  -15.300820
C         6.540986    0.530069  -13.848186
C         8.799485    0.597956  -16.205700
C         9.153483    1.960894  -16.317570
C        10.477127    2.354353  -16.468056
C        11.507355    1.414806  -16.521588
C        11.175296    0.067644  -16.417828
C         9.852478   -0.339295  -16.255727
O         4.636196   -2.533934  -13.826714
N         2.581316   -0.766832  -13.694036
C         2.428229   -0.652695  -15.034909
C         1.147318   -1.252713  -15.605368
C         0.468749   -0.350368  -16.605342
C         1.052759   -0.103388  -17.853513
C         0.435049    0.745769  -18.767955
C        -0.775525    1.362192  -18.449639
C        -1.362299    1.125705  -17.208499
C        -0.741425    0.275774  -16.293478
O         3.268418   -0.122617  -15.742950
C         3.637505    3.128285   -7.066022
C         3.984521    3.487694   -8.369053
S         2.548168    5.100135   -9.285123
C         1.685936    5.428192   -7.736242
C         0.351161    4.687146   -7.517164
H         0.519123    3.603730   -7.551710
N        -0.620777    4.990865   -8.534404
C        -1.264840    4.063096   -9.275274
C        -2.174330    4.634078  -10.350745
O        -1.124332    2.857531   -9.144676
C        -0.203605    5.089780   -6.144300
N         0.306770    4.403699   -5.099012
C        -0.020311    4.735687   -3.738576
O        -1.005534    6.009988   -6.037141
H         1.014613    1.099467   -6.884965
H         1.858872    2.420148   -9.302928
H         0.693961    1.145513   -9.126228
H         2.467673   -0.594341   -9.089749
H         3.722244    0.643912   -9.012089
H         3.010699    1.517259  -11.262112
H         1.756868    0.291729  -11.351165
H         3.546305   -1.519713  -11.269308
H         4.777501   -0.266032  -11.165724
H         6.764092   -2.747460  -14.531670
H         8.116171   -1.636830  -14.145635
H         6.081629   -1.295834  -16.423382
H         7.762082   -1.785759  -16.677189
H         5.521144    0.905018  -15.708885
H         6.800880    2.082285  -15.345342
H         5.869753    1.125387  -13.220372
H         7.552652    0.642835  -13.423001
H         8.378511    2.727490  -16.314091
H        10.703444    3.419989  -16.554866
H        12.545903    1.728870  -16.640316
H        11.959431   -0.693181  -16.448899
H         9.650871   -1.404903  -16.153454
H         1.962578   -1.379159  -13.179370
H         0.450402   -1.517493  -14.797112
H         1.452754   -2.194871  -16.090106
H         2.010031   -0.568721  -18.094675
H         0.905076    0.931329  -19.736599
H        -1.258282    2.029328  -19.167457
H        -2.306505    1.607976  -16.945695
H        -1.204246    0.100722  -15.318390
H         4.100125    3.680629   -6.244111
H         3.816665    2.823311   -9.214542
H         4.886214    4.093781   -8.478705
H         1.509452    6.510774   -7.624391
H         2.353412    5.117728   -6.911465
H        -0.883496    5.963277   -8.620868
H        -1.609173    4.674312  -11.294228
H        -2.535492    5.646463  -10.119408
H        -3.027633    3.958157  -10.489228
H         0.986882    3.642415   -5.247097
H        -0.536472    3.902746   -3.232094
H        -0.684088    5.610150   -3.745571
H         0.886814    4.973974   -3.159626
