-1 1
 OpenBabel05232413493D

 93 94  0  0  1  0  0  0  0  0999 V2000
   -1.8359    0.3882    5.2181 O   0  0  0  0  0  0  0  0  0  0  0  0
   -2.5485   -0.4070    4.6092 C   0  0  0  0  0  0  0  0  0  0  0  0
   -3.1178   -0.0717    3.4284 N   0  0  0  0  0  0  0  0  0  0  0  0
   -3.9070   -0.8990    2.5323 C   0  0  0  0  0  0  0  0  0  0  0  0
   -3.1334   -1.4213    1.3235 C   0  0  0  0  0  0  0  0  0  0  0  0
   -2.7199   -0.3363    0.3311 C   0  0  0  0  0  0  0  0  0  0  0  0
   -1.8035   -0.8759   -0.7625 C   0  0  0  0  0  0  0  0  0  0  0  0
   -1.4883    0.1654   -1.8506 C   0  0  1  0  0  0  0  0  0  0  0  0
   -1.2195    1.1220   -1.3807 H   0  0  0  0  0  0  0  0  0  0  0  0
   -0.3754   -0.3595   -2.7668 C   0  0  0  0  0  0  0  0  0  0  0  0
    0.9127   -0.2152   -2.3654 N   0  0  0  0  0  0  0  0  0  0  0  0
    1.3721    0.5179   -1.1901 C   0  0  0  0  0  0  0  0  0  0  0  0
    2.3511   -0.3345   -0.3828 C   0  0  0  0  0  0  0  0  0  0  0  0
    3.4602   -0.7573   -1.2273 N   0  0  0  0  0  0  0  0  0  0  0  0
    2.9505   -1.5668   -2.3171 C   0  0  0  0  0  0  0  0  0  0  0  0
    1.9769   -0.7719   -3.1894 C   0  0  0  0  0  0  0  0  0  0  0  0
    4.5635    0.0685   -1.3994 C   0  0  0  0  0  0  0  0  0  0  0  0
    5.3513    0.0350   -2.5679 C   0  0  0  0  0  0  0  0  0  0  0  0
    6.4951    0.8249   -2.7237 C   0  0  0  0  0  0  0  0  0  0  0  0
    7.2974    0.7230   -3.9973 C   0  0  0  0  0  0  0  0  0  0  0  0
    6.8732    1.6934   -1.7003 C   0  0  0  0  0  0  0  0  0  0  0  0
    6.0995    1.7510   -0.5395 C   0  0  0  0  0  0  0  0  0  0  0  0
    4.9687    0.9647   -0.3806 C   0  0  0  0  0  0  0  0  0  0  0  0
   -0.6820   -0.9286   -3.8080 O   0  0  0  0  0  0  0  0  0  0  0  0
   -2.6335    0.4194   -2.6953 N   0  0  0  0  0  0  0  0  0  0  0  0
   -3.4146    1.5161   -2.6042 C   0  0  0  0  0  0  0  0  0  0  0  0
   -4.5029    1.6329   -3.6820 C   0  0  0  0  0  0  0  0  0  0  0  0
   -5.0085    0.3284   -4.2390 C   0  0  0  0  0  0  0  0  0  0  0  0
   -5.9340   -0.4356   -3.5162 C   0  0  0  0  0  0  0  0  0  0  0  0
   -6.3685   -1.6696   -3.9917 C   0  0  0  0  0  0  0  0  0  0  0  0
   -5.8817   -2.1652   -5.2021 C   0  0  0  0  0  0  0  0  0  0  0  0
   -4.9593   -1.4170   -5.9296 C   0  0  0  0  0  0  0  0  0  0  0  0
   -4.5283   -0.1796   -5.4507 C   0  0  0  0  0  0  0  0  0  0  0  0
   -3.2822    2.3851   -1.7620 O   0  0  0  0  0  0  0  0  0  0  0  0
   -2.8257   -1.7633    5.1846 C   0  0  0  0  0  0  0  0  0  0  0  0
   -2.2499   -2.8807    4.7402 C   0  0  0  0  0  0  0  0  0  0  0  0
    0.3719   -2.3699    2.2231 S   0  0  0  0  0  1  0  0  0  0  0  0
    0.2168   -0.5567    2.1947 C   0  0  0  0  0  0  0  0  0  0  0  0
    1.3195    0.2079    2.9230 C   0  0  2  0  0  0  0  0  0  0  0  0
    2.2600   -0.3620    2.8444 H   0  0  0  0  0  0  0  0  0  0  0  0
    1.0113    0.3326    4.3381 N   0  0  0  0  0  0  0  0  0  0  0  0
    1.9406    0.4663    5.2985 C   0  0  0  0  0  0  0  0  0  0  0  0
    1.4154    0.3722    6.7158 C   0  0  0  0  0  0  0  0  0  0  0  0
    3.1374    0.6420    5.0674 O   0  0  0  0  0  0  0  0  0  0  0  0
    1.5730    1.5979    2.3027 C   0  0  0  0  0  0  0  0  0  0  0  0
    2.7696    2.1307    2.6689 N   0  0  0  0  0  0  0  0  0  0  0  0
    3.1739    3.4539    2.2746 C   0  0  0  0  0  0  0  0  0  0  0  0
    0.8041    2.1451    1.5262 O   0  0  0  0  0  0  0  0  0  0  0  0
   -2.8242    0.8404    3.0909 H   0  0  0  0  0  0  0  0  0  0  0  0
   -4.7777   -0.3049    2.2020 H   0  0  0  0  0  0  0  0  0  0  0  0
   -4.2952   -1.7427    3.1178 H   0  0  0  0  0  0  0  0  0  0  0  0
   -3.7706   -2.1596    0.8052 H   0  0  0  0  0  0  0  0  0  0  0  0
   -2.2349   -1.9640    1.6709 H   0  0  0  0  0  0  0  0  0  0  0  0
   -2.1843    0.4770    0.8501 H   0  0  0  0  0  0  0  0  0  0  0  0
   -3.6145    0.1285   -0.1192 H   0  0  0  0  0  0  0  0  0  0  0  0
   -2.2673   -1.7456   -1.2591 H   0  0  0  0  0  0  0  0  0  0  0  0
   -0.8755   -1.2548   -0.3025 H   0  0  0  0  0  0  0  0  0  0  0  0
    0.5385    0.8268   -0.5529 H   0  0  0  0  0  0  0  0  0  0  0  0
    1.8826    1.4418   -1.5190 H   0  0  0  0  0  0  0  0  0  0  0  0
    1.8479   -1.2290    0.0249 H   0  0  0  0  0  0  0  0  0  0  0  0
    2.7081    0.2345    0.4782 H   0  0  0  0  0  0  0  0  0  0  0  0
    2.4154   -2.4212   -1.8727 H   0  0  0  0  0  0  0  0  0  0  0  0
    3.7674   -1.9814   -2.9208 H   0  0  0  0  0  0  0  0  0  0  0  0
    1.5123   -1.4000   -3.9587 H   0  0  0  0  0  0  0  0  0  0  0  0
    2.5182    0.0512   -3.6919 H   0  0  0  0  0  0  0  0  0  0  0  0
    5.0727   -0.6171   -3.3964 H   0  0  0  0  0  0  0  0  0  0  0  0
    6.6593    0.8650   -4.8837 H   0  0  0  0  0  0  0  0  0  0  0  0
    7.7679   -0.2690   -4.0907 H   0  0  0  0  0  0  0  0  0  0  0  0
    8.0962    1.4777   -4.0311 H   0  0  0  0  0  0  0  0  0  0  0  0
    7.7606    2.3219   -1.8084 H   0  0  0  0  0  0  0  0  0  0  0  0
    6.3867    2.4260    0.2710 H   0  0  0  0  0  0  0  0  0  0  0  0
    4.4077    1.0405    0.5507 H   0  0  0  0  0  0  0  0  0  0  0  0
   -2.7366   -0.2294   -3.4703 H   0  0  0  0  0  0  0  0  0  0  0  0
   -4.0833    2.2590   -4.4859 H   0  0  0  0  0  0  0  0  0  0  0  0
   -5.3138    2.2125   -3.2201 H   0  0  0  0  0  0  0  0  0  0  0  0
   -6.3084   -0.0575   -2.5610 H   0  0  0  0  0  0  0  0  0  0  0  0
   -7.0871   -2.2526   -3.4109 H   0  0  0  0  0  0  0  0  0  0  0  0
   -6.2169   -3.1364   -5.5728 H   0  0  0  0  0  0  0  0  0  0  0  0
   -4.5654   -1.7992   -6.8740 H   0  0  0  0  0  0  0  0  0  0  0  0
   -3.7955    0.3969   -6.0217 H   0  0  0  0  0  0  0  0  0  0  0  0
   -3.4440   -1.7562    6.0898 H   0  0  0  0  0  0  0  0  0  0  0  0
   -1.5591   -2.8778    3.8792 H   0  0  0  0  0  0  0  0  0  0  0  0
   -2.4099   -3.8263    5.2673 H   0  0  0  0  0  0  0  0  0  0  0  0
   -0.7484   -0.2259    2.6097 H   0  0  0  0  0  0  0  0  0  0  0  0
    0.2023   -0.1898    1.1623 H   0  0  0  0  0  0  0  0  0  0  0  0
    0.0305    0.2684    4.6127 H   0  0  0  0  0  0  0  0  0  0  0  0
    1.8097   -0.5526    7.1621 H   0  0  0  0  0  0  0  0  0  0  0  0
    0.3180    0.3517    6.7569 H   0  0  0  0  0  0  0  0  0  0  0  0
    1.8058    1.2169    7.3000 H   0  0  0  0  0  0  0  0  0  0  0  0
    3.2479    1.6536    3.4405 H   0  0  0  0  0  0  0  0  0  0  0  0
    3.1168    4.1706    3.1119 H   0  0  0  0  0  0  0  0  0  0  0  0
    2.4988    3.7949    1.4791 H   0  0  0  0  0  0  0  0  0  0  0  0
    4.2059    3.4537    1.8889 H   0  0  0  0  0  0  0  0  0  0  0  0
  2 35  1  0  0  0  0
  2  1  2  0  0  0  0
  3  2  1  0  0  0  0
  4 51  1  0  0  0  0
  4  3  1  0  0  0  0
  5 53  1  0  0  0  0
  5  4  1  0  0  0  0
  6 54  1  0  0  0  0
  6  5  1  0  0  0  0
  7 57  1  0  0  0  0
  7  6  1  0  0  0  0
  8  9  1  1  0  0  0
  8  7  1  0  0  0  0
 10 11  1  0  0  0  0
 10  8  1  0  0  0  0
 11 12  1  0  0  0  0
 12 58  1  0  0  0  0
 12 13  1  0  0  0  0
 13 60  1  0  0  0  0
 13 61  1  0  0  0  0
 14 13  1  0  0  0  0
 15 62  1  0  0  0  0
 15 14  1  0  0  0  0
 16 11  1  0  0  0  0
 16 15  1  0  0  0  0
 17 14  1  0  0  0  0
 17 23  1  0  0  0  0
 18 17  2  0  0  0  0
 19 18  1  0  0  0  0
 19 21  2  0  0  0  0
 20 19  1  0  0  0  0
 21 22  1  0  0  0  0
 22 23  2  0  0  0  0
 22 71  1  0  0  0  0
 23 72  1  0  0  0  0
 24 10  2  0  0  0  0
 25 26  1  0  0  0  0
 25  8  1  0  0  0  0
 26 34  2  0  0  0  0
 27 75  1  0  0  0  0
 27 26  1  0  0  0  0
 28 27  1  0  0  0  0
 28 29  1  0  0  0  0
 29 76  1  0  0  0  0
 30 29  2  0  0  0  0
 30 77  1  0  0  0  0
 31 30  1  0  0  0  0
 32 33  1  0  0  0  0
 32 31  2  0  0  0  0
 33 28  2  0  0  0  0
 35 81  1  0  0  0  0
 36 35  2  0  0  0  0
 36 83  1  0  0  0  0
 38 37  1  0  0  0  0
 38 84  1  0  0  0  0
 38 39  1  0  0  0  0
 39 40  1  6  0  0  0
 39 41  1  0  0  0  0
 41 86  1  0  0  0  0
 41 42  1  0  0  0  0
 42 43  1  0  0  0  0
 43 88  1  0  0  0  0
 43 87  1  0  0  0  0
 43 89  1  0  0  0  0
 44 42  2  0  0  0  0
 45 46  1  0  0  0  0
 45 39  1  0  0  0  0
 46 90  1  0  0  0  0
 47 46  1  0  0  0  0
 47 91  1  0  0  0  0
 48 45  2  0  0  0  0
 49  3  1  0  0  0  0
 50  4  1  0  0  0  0
 52  5  1  0  0  0  0
 55  6  1  0  0  0  0
 56  7  1  0  0  0  0
 59 12  1  0  0  0  0
 63 15  1  0  0  0  0
 64 16  1  0  0  0  0
 65 16  1  0  0  0  0
 66 18  1  0  0  0  0
 67 20  1  0  0  0  0
 68 20  1  0  0  0  0
 69 20  1  0  0  0  0
 70 21  1  0  0  0  0
 73 25  1  0  0  0  0
 74 27  1  0  0  0  0
 78 31  1  0  0  0  0
 79 32  1  0  0  0  0
 80 33  1  0  0  0  0
 82 36  1  0  0  0  0
 85 38  1  0  0  0  0
 92 47  1  0  0  0  0
 93 47  1  0  0  0  0
M  END
