93
-1 1
O         3.924412   13.363358   -0.030195
C         3.632398   12.284155   -0.599175
N         2.756700   12.388993   -1.664680
C         2.148183   11.372774   -2.484718
C         2.941125   10.968759   -3.735065
C         3.249488   12.121731   -4.684608
C         4.198308   11.694472   -5.799588
C         4.478712   12.801617   -6.830736
H         4.752618   13.729497   -6.307399
C         5.579565   12.354240   -7.802674
N         6.869059   12.427570   -7.383913
C         7.325826   12.982194   -6.114685
C         8.277647   12.001722   -5.431709
N         9.395200   11.686838   -6.310669
C         8.892574   11.058126   -7.518076
C         7.933081   11.981276   -8.272090
C        10.497135   12.538062   -6.353666
C        11.307055   12.656760   -7.500186
C        12.444130   13.471194   -7.533277
C        13.272457   13.535779   -8.792346
C        12.790514   14.209771   -6.402329
C        11.994496   14.115309   -5.259968
C        10.871093   13.302883   -5.223403
O         5.268115   11.910920   -8.901224
N         3.311368   13.095055   -7.627326
C         2.524098   14.177414   -7.439541
C         1.396361   14.345166   -8.467614
C         0.854506   13.062257   -9.041616
C        -0.001057   12.256411   -8.278799
C        -0.467309   11.041781   -8.773060
C        -0.083772   10.608062  -10.043188
C         0.767812   11.398452  -10.811044
C         1.231646   12.616368  -10.312427
O         2.681645   14.990384   -6.548597
C         4.210309   11.041745   -0.162365
C         4.487607    9.875749   -0.879376
S         6.365091   10.054109   -2.225579
C         6.262556   11.834671   -2.534428
C         7.269241   12.702244   -1.776685
H         8.184880   12.117473   -1.592645
N         6.754884   13.109645   -0.480638
C         7.552155   13.391068    0.562974
C         6.822661   13.636899    1.865972
O         8.782410   13.438116    0.488223
C         7.684152   13.951543   -2.577605
N         8.854389   14.492918   -2.153451
C         9.331903   15.739866   -2.693515
O         7.046327   14.408023   -3.514918
H         2.554780   13.357377   -1.878418
H         1.157392   11.748663   -2.796853
H         1.955005   10.485142   -1.861910
H         2.368037   10.190930   -4.271814
H         3.893008   10.500879   -3.436472
H         3.715690   12.949438   -4.124466
H         2.318072   12.527865   -5.115717
H         3.788154   10.825897   -6.343897
H         5.144474   11.351117   -5.350492
H         6.495040   13.221705   -5.446039
H         7.859036   13.931986   -6.297634
H         7.749893   11.065856   -5.184898
H         8.621056   12.417343   -4.482398
H         8.348203   10.148229   -7.217366
H         9.713503   10.732195   -8.168194
H         7.468306   11.474937   -9.126544
H         8.487473   12.861286   -8.647010
H        11.054532   12.109838   -8.409158
H        12.649982   13.777463   -9.668039
H        13.759549   12.568498   -8.995832
H        14.060436   14.298573   -8.716539
H        13.670808   14.857001   -6.413881
H        12.253297   14.689803   -4.367009
H        10.293537   13.262452   -4.300242
H         3.194858   12.506093   -8.446506
H         1.789100   14.991024   -9.269295
H         0.611975   14.917468   -7.953826
H        -0.294037   12.585692   -7.278119
H        -1.129873   10.425469   -8.161051
H        -0.444795    9.652329  -10.429623
H         1.079607   11.065417  -11.803543
H         1.907723   13.227184  -10.916927
H         4.777550   11.184791    0.761538
H         3.860161    9.546798   -1.705105
H         4.906496    9.042826   -0.310798
H         5.247274   12.182604   -2.295166
H         6.382691   12.021505   -3.606968
H         5.735838   13.206263   -0.350494
H         7.079867   12.821874    2.558756
H         5.733091   13.665929    1.725381
H         7.183558   14.575481    2.309414
H         9.190385   14.159510   -1.242953
H         8.724418   16.602166   -2.366931
H         9.301503   15.709939   -3.792462
H        10.370340   15.900047   -2.372819
