92
-1 1
O        -1.420946    1.433158   -7.673576
C        -0.256368    1.452672   -7.222922
N        -0.161522    1.869052   -5.816521
C         0.606581    3.064626   -5.477129
C         1.490550    2.923609   -4.237070
C         0.775070    2.376422   -3.006841
C         1.681596    2.352567   -1.782229
C         1.050316    1.694681   -0.557006
H         0.843058    0.647496   -0.796095
C         1.960143    1.873591    0.665543
N         2.544273    0.782569    1.237962
C         3.134229    0.938690    2.550165
C         2.111545    0.583161    3.622221
N         1.445604   -0.697795    3.379651
C         1.091940   -1.016690    1.994714
C         2.170800   -0.600971    1.006381
C         0.595002   -1.153427    4.367020
C        -0.529310   -1.972408    4.074699
N        -1.380301   -2.407615    4.986826
C        -1.196115   -2.076130    6.258958
C        -2.257822   -2.559944    7.215184
F        -2.423178   -3.881562    7.163107
F        -1.955713   -2.245137    8.484850
F        -3.448474   -2.004070    6.949547
C        -0.125210   -1.293847    6.677776
C         0.769420   -0.827103    5.726243
O         2.113720    2.999778    1.119589
N        -0.214938    2.302749   -0.179320
C        -1.256901    1.571254    0.285648
C        -2.313665    2.359308    1.050544
C        -2.096775    2.130680    2.530662
C        -1.209555    2.937688    3.251891
C        -0.978458    2.702582    4.606779
C        -1.625818    1.651902    5.255381
C        -2.493203    0.827241    4.540316
C        -2.720962    1.063273    3.185713
O        -1.341009    0.359921    0.177916
C         0.916864    1.086239   -7.878781
C         2.234017    0.842215   -7.284548
S         2.663767   -0.928193   -6.638563
C         2.324482   -0.838065   -4.853232
C         1.066258   -1.566630   -4.396346
H         1.084363   -2.600450   -4.781109
N        -0.137553   -0.938306   -4.900991
C        -1.278982   -1.637545   -5.079121
C        -2.437151   -0.885795   -5.685284
O        -1.388049   -2.814388   -4.721968
C         1.005670   -1.653708   -2.858608
N         0.104171   -2.535730   -2.396256
C        -0.200847   -2.641806   -0.990770
O         1.714351   -0.967448   -2.123171
H        -1.134827    2.008611   -5.555837
H        -0.080928    3.917730   -5.317391
H         1.230413    3.337057   -6.342629
H         1.922191    3.913976   -4.004052
H         2.349480    2.270429   -4.464669
H         0.417188    1.355719   -3.216953
H        -0.123537    2.982160   -2.794277
H         2.000436    3.375901   -1.517479
H         2.593868    1.780376   -2.016929
H         3.451511    1.979218    2.681698
H         4.015353    0.280985    2.620358
H         1.359357    1.393825    3.683193
H         2.640040    0.547962    4.584151
H         0.136259   -0.540279    1.703372
H         0.955872   -2.104433    1.909126
H         1.844240   -0.773706   -0.027263
H         3.075179   -1.213946    1.151812
H        -0.755745   -2.259829    3.047104
H         0.004409   -1.040881    7.730301
H         1.598310   -0.201252    6.051659
H        -0.155333    3.276942    0.094114
H        -3.296603    1.979879    0.741312
H        -2.265543    3.432064    0.811912
H        -0.686787    3.755825    2.748798
H        -0.288123    3.346429    5.156919
H        -1.448059    1.465349    6.316479
H        -2.983648   -0.012212    5.037269
H        -3.387981    0.406627    2.622713
H         0.768779    0.768942   -8.914306
H         2.487908    1.466850   -6.417596
H         3.045630    0.969190   -8.016328
H         2.278621    0.215690   -4.545274
H         3.181519   -1.272911   -4.321295
H        -0.074377    0.045978   -5.211120
H        -3.160841   -1.619004   -6.061500
H        -2.137950   -0.187439   -6.485981
H        -2.926804   -0.300832   -4.889505
H        -0.512061   -2.953596   -3.104041
H        -1.005415   -3.376196   -0.856632
H        -0.530581   -1.676929   -0.572259
H         0.678730   -2.988894   -0.422929
