-1 1
 OpenBabel05232413493D

 92 93  0  0  1  0  0  0  0  0999 V2000
   -2.3347    1.7464   -6.9120 O   0  0  0  0  0  0  0  0  0  0  0  0
   -1.1695    2.1075   -6.8273 C   0  0  0  0  0  0  0  0  0  0  0  0
   -0.5600    2.2577   -5.6160 N   0  0  0  0  0  0  0  0  0  0  0  0
    0.5270    3.1557   -5.2643 C   0  0  0  0  0  0  0  0  0  0  0  0
    1.5101    2.5621   -4.2635 C   0  0  0  0  0  0  0  0  0  0  0  0
    0.8446    2.0594   -2.9803 C   0  0  0  0  0  0  0  0  0  0  0  0
    1.8106    1.9774   -1.8033 C   0  0  0  0  0  0  0  0  0  0  0  0
    1.1688    1.4318   -0.5288 C   0  0  1  0  0  0  0  0  0  0  0  0
    0.8605    0.3989   -0.7113 H   0  0  0  0  0  0  0  0  0  0  0  0
    2.1197    1.5803    0.6665 C   0  0  0  0  0  0  0  0  0  0  0  0
    2.5518    0.4701    1.3275 N   0  0  0  0  0  0  0  0  0  0  0  0
    3.1497    0.6400    2.6336 C   0  0  0  0  0  0  0  0  0  0  0  0
    2.0930    0.4387    3.7132 C   0  0  0  0  0  0  0  0  0  0  0  0
    1.3151   -0.7885    3.5358 N   0  0  0  0  0  0  0  0  0  0  0  0
    0.9306   -1.1410    2.1668 C   0  0  0  0  0  0  0  0  0  0  0  0
    2.0451   -0.8803    1.1662 C   0  0  0  0  0  0  0  0  0  0  0  0
    0.4395   -1.1259    4.5468 C   0  0  0  0  0  0  0  0  0  0  0  0
   -0.7492   -1.8653    4.2988 C   0  0  0  0  0  0  0  0  0  0  0  0
   -1.6251   -2.1874    5.2338 N   0  0  0  0  0  0  0  0  0  0  0  0
   -1.4051   -1.8122    6.4882 C   0  0  0  0  0  0  0  0  0  0  0  0
   -2.4950   -2.1623    7.4702 C   0  0  0  0  0  0  0  0  0  0  0  0
   -2.7693   -3.4668    7.4810 F   0  0  0  0  0  0  0  0  0  0  0  0
   -2.1581   -1.8152    8.7228 F   0  0  0  0  0  0  0  0  0  0  0  0
   -3.6383   -1.5231    7.1841 F   0  0  0  0  0  0  0  0  0  0  0  0
   -0.2718   -1.0993    6.8647 C   0  0  0  0  0  0  0  0  0  0  0  0
    0.6496   -0.7507    5.8885 C   0  0  0  0  0  0  0  0  0  0  0  0
    2.4197    2.7086    1.0349 O   0  0  0  0  0  0  0  0  0  0  0  0
   -0.0220    2.1732   -0.1401 N   0  0  0  0  0  0  0  0  0  0  0  0
   -1.1371    1.5713    0.3379 C   0  0  0  0  0  0  0  0  0  0  0  0
   -2.1048    2.4933    1.0722 C   0  0  0  0  0  0  0  0  0  0  0  0
   -1.9197    2.3030    2.5616 C   0  0  0  0  0  0  0  0  0  0  0  0
   -0.9894    3.0740    3.2676 C   0  0  0  0  0  0  0  0  0  0  0  0
   -0.7944    2.8755    4.6340 C   0  0  0  0  0  0  0  0  0  0  0  0
   -1.5232    1.8983    5.3102 C   0  0  0  0  0  0  0  0  0  0  0  0
   -2.4358    1.1089    4.6116 C   0  0  0  0  0  0  0  0  0  0  0  0
   -2.6262    1.3071    3.2453 C   0  0  0  0  0  0  0  0  0  0  0  0
   -1.3554    0.3744    0.2601 O   0  0  0  0  0  0  0  0  0  0  0  0
   -0.3675    2.3185   -8.0719 C   0  0  0  0  0  0  0  0  0  0  0  0
    0.8767    1.8695   -8.2558 C   0  0  0  0  0  0  0  0  0  0  0  0
    3.0397   -0.3414   -6.1847 S   0  0  0  0  0  1  0  0  0  0  0  0
    2.7737   -0.9050   -4.4688 C   0  0  0  0  0  0  0  0  0  0  0  0
    1.4949   -1.7421   -4.2636 C   0  0  2  0  0  0  0  0  0  0  0  0
    1.6796   -2.7805   -4.5979 H   0  0  0  0  0  0  0  0  0  0  0  0
    0.4238   -1.1885   -5.0815 N   0  0  0  0  0  0  0  0  0  0  0  0
   -0.6114   -1.9246   -5.5421 C   0  0  0  0  0  0  0  0  0  0  0  0
   -1.3426   -1.3469   -6.7297 C   0  0  0  0  0  0  0  0  0  0  0  0
   -0.9698   -2.9857   -5.0270 O   0  0  0  0  0  0  0  0  0  0  0  0
    1.1092   -1.8212   -2.7743 C   0  0  0  0  0  0  0  0  0  0  0  0
    0.0156   -2.5490   -2.5021 N   0  0  0  0  0  0  0  0  0  0  0  0
   -0.4984   -2.6639   -1.1606 C   0  0  0  0  0  0  0  0  0  0  0  0
    1.7728   -1.2768   -1.8918 O   0  0  0  0  0  0  0  0  0  0  0  0
   -1.1818    2.0010   -4.8554 H   0  0  0  0  0  0  0  0  0  0  0  0
    0.0963    4.0875   -4.8450 H   0  0  0  0  0  0  0  0  0  0  0  0
    1.0562    3.4359   -6.1825 H   0  0  0  0  0  0  0  0  0  0  0  0
    2.2353    3.3561   -4.0140 H   0  0  0  0  0  0  0  0  0  0  0  0
    2.0806    1.7557   -4.7569 H   0  0  0  0  0  0  0  0  0  0  0  0
    0.3988    1.0659   -3.1595 H   0  0  0  0  0  0  0  0  0  0  0  0
    0.0116    2.7317   -2.7005 H   0  0  0  0  0  0  0  0  0  0  0  0
    2.2359    2.9740   -1.5930 H   0  0  0  0  0  0  0  0  0  0  0  0
    2.6493    1.3101   -2.0559 H   0  0  0  0  0  0  0  0  0  0  0  0
    3.5631    1.6517    2.7121 H   0  0  0  0  0  0  0  0  0  0  0  0
    3.9650   -0.0925    2.7480 H   0  0  0  0  0  0  0  0  0  0  0  0
    1.4163    1.3157    3.7215 H   0  0  0  0  0  0  0  0  0  0  0  0
    2.6106    0.4106    4.6811 H   0  0  0  0  0  0  0  0  0  0  0  0
    0.0233   -0.5921    1.8497 H   0  0  0  0  0  0  0  0  0  0  0  0
    0.6936   -2.2142    2.1325 H   0  0  0  0  0  0  0  0  0  0  0  0
    1.7122   -1.0749    0.1388 H   0  0  0  0  0  0  0  0  0  0  0  0
    2.8859   -1.5690    1.3499 H   0  0  0  0  0  0  0  0  0  0  0  0
   -1.0053   -2.1814    3.2867 H   0  0  0  0  0  0  0  0  0  0  0  0
   -0.1144   -0.8081    7.9035 H   0  0  0  0  0  0  0  0  0  0  0  0
    1.5278   -0.1777    6.1801 H   0  0  0  0  0  0  0  0  0  0  0  0
    0.1410    3.1440    0.1016 H   0  0  0  0  0  0  0  0  0  0  0  0
   -3.1215    2.2075    0.7709 H   0  0  0  0  0  0  0  0  0  0  0  0
   -1.9445    3.5454    0.7937 H   0  0  0  0  0  0  0  0  0  0  0  0
   -0.4068    3.8367    2.7435 H   0  0  0  0  0  0  0  0  0  0  0  0
   -0.0688    3.4906    5.1716 H   0  0  0  0  0  0  0  0  0  0  0  0
   -1.3751    1.7414    6.3806 H   0  0  0  0  0  0  0  0  0  0  0  0
   -2.9917    0.3261    5.1316 H   0  0  0  0  0  0  0  0  0  0  0  0
   -3.3287    0.6770    2.6953 H   0  0  0  0  0  0  0  0  0  0  0  0
   -0.9477    2.7422   -8.8976 H   0  0  0  0  0  0  0  0  0  0  0  0
    1.4591    1.3685   -7.4662 H   0  0  0  0  0  0  0  0  0  0  0  0
    1.3520    1.9543   -9.2375 H   0  0  0  0  0  0  0  0  0  0  0  0
    2.7203   -0.0426   -3.7883 H   0  0  0  0  0  0  0  0  0  0  0  0
    3.6206   -1.5102   -4.1143 H   0  0  0  0  0  0  0  0  0  0  0  0
    0.8310   -0.5035   -5.7407 H   0  0  0  0  0  0  0  0  0  0  0  0
   -0.6495   -0.8711   -7.4387 H   0  0  0  0  0  0  0  0  0  0  0  0
   -2.0575   -0.5758   -6.4069 H   0  0  0  0  0  0  0  0  0  0  0  0
   -1.8949   -2.1537   -7.2262 H   0  0  0  0  0  0  0  0  0  0  0  0
   -0.4874   -2.9395   -3.3100 H   0  0  0  0  0  0  0  0  0  0  0  0
   -1.4203   -3.2596   -1.1828 H   0  0  0  0  0  0  0  0  0  0  0  0
   -0.7299   -1.6779   -0.7258 H   0  0  0  0  0  0  0  0  0  0  0  0
    0.2239   -3.1705   -0.4969 H   0  0  0  0  0  0  0  0  0  0  0  0
  1  2  2  0  0  0  0
  2  3  1  0  0  0  0
  3  4  1  0  0  0  0
  3 52  1  0  0  0  0
  4 53  1  0  0  0  0
  4  5  1  0  0  0  0
  5 55  1  0  0  0  0
  5  6  1  0  0  0  0
  6 58  1  0  0  0  0
  6  7  1  0  0  0  0
  7 59  1  0  0  0  0
  7  8  1  0  0  0  0
  8  9  1  6  0  0  0
  8 28  1  0  0  0  0
  8 10  1  0  0  0  0
 10 27  2  0  0  0  0
 10 11  1  0  0  0  0
 11 12  1  0  0  0  0
 12 61  1  0  0  0  0
 12 62  1  0  0  0  0
 12 13  1  0  0  0  0
 13 63  1  0  0  0  0
 13 64  1  0  0  0  0
 14 13  1  0  0  0  0
 14 17  1  0  0  0  0
 15 14  1  0  0  0  0
 16 11  1  0  0  0  0
 16 68  1  0  0  0  0
 16 15  1  0  0  0  0
 17 26  1  0  0  0  0
 18 17  2  0  0  0  0
 18 19  1  0  0  0  0
 19 20  2  0  0  0  0
 20 25  1  0  0  0  0
 20 21  1  0  0  0  0
 21 22  1  0  0  0  0
 21 23  1  0  0  0  0
 24 21  1  0  0  0  0
 25 70  1  0  0  0  0
 26 71  1  0  0  0  0
 26 25  2  0  0  0  0
 28 72  1  0  0  0  0
 28 29  1  0  0  0  0
 29 30  1  0  0  0  0
 30 31  1  0  0  0  0
 31 36  2  0  0  0  0
 31 32  1  0  0  0  0
 32 33  2  0  0  0  0
 33 76  1  0  0  0  0
 33 34  1  0  0  0  0
 34 77  1  0  0  0  0
 35 78  1  0  0  0  0
 35 34  2  0  0  0  0
 36 35  1  0  0  0  0
 37 29  2  0  0  0  0
 38  2  1  0  0  0  0
 39 38  2  0  0  0  0
 39 81  1  0  0  0  0
 40 41  1  0  0  0  0
 41 42  1  0  0  0  0
 41 84  1  0  0  0  0
 41 83  1  0  0  0  0
 42 43  1  6  0  0  0
 42 48  1  0  0  0  0
 44 42  1  0  0  0  0
 45 44  1  0  0  0  0
 45 47  2  0  0  0  0
 46 87  1  0  0  0  0
 46 45  1  0  0  0  0
 48 49  1  0  0  0  0
 48 51  2  0  0  0  0
 49 50  1  0  0  0  0
 50 91  1  0  0  0  0
 50 92  1  0  0  0  0
 54  4  1  0  0  0  0
 56  5  1  0  0  0  0
 57  6  1  0  0  0  0
 60  7  1  0  0  0  0
 65 15  1  0  0  0  0
 66 15  1  0  0  0  0
 67 16  1  0  0  0  0
 69 18  1  0  0  0  0
 73 30  1  0  0  0  0
 74 30  1  0  0  0  0
 75 32  1  0  0  0  0
 79 36  1  0  0  0  0
 80 38  1  0  0  0  0
 82 39  1  0  0  0  0
 85 44  1  0  0  0  0
 86 46  1  0  0  0  0
 88 46  1  0  0  0  0
 89 49  1  0  0  0  0
 90 50  1  0  0  0  0
M  END
