92
-1 1
O         2.084770   -7.353659   -1.079276
C         2.733726   -8.377346   -1.331001
N         1.993654   -9.498505   -1.767879
C         2.200500  -10.856260   -1.300370
C         2.191516  -10.979222    0.219497
C         2.549853  -12.360074    0.760552
C         3.128006  -12.222851    2.163714
C         3.583800  -13.525898    2.816548
H         4.195048  -14.061948    2.073372
C         4.604599  -13.211979    3.920408
N         4.201150  -12.769094    5.132479
C         5.204477  -12.525776    6.159230
C         5.083446  -11.107200    6.695702
N         3.725949  -10.892149    7.177978
C         2.734694  -11.061619    6.128017
C         2.840120  -12.477356    5.561577
C         3.334729  -10.575434    8.441238
C         4.363122  -10.678648    9.541053
C         4.491962   -9.614638   10.438165
C         5.360183   -9.697507   11.522584
C         6.077200  -10.872071   11.718068
F         6.905909  -10.962361   12.762261
C         5.947891  -11.957799   10.861476
C         5.088564  -11.852278    9.770279
O         2.194705  -10.241522    8.722971
O         5.790373  -13.365581    3.638465
N         2.456454  -14.348359    3.216185
C         2.465742  -15.560060    3.835381
C         3.818626  -16.196026    4.128502
C         4.296347  -16.007374    5.558275
C         3.402102  -15.977774    6.634902
C         3.870770  -15.843926    7.941855
C         5.239850  -15.758260    8.195159
C         6.136772  -15.789002    7.127959
C         5.666988  -15.902076    5.820733
O         1.427795  -16.114553    4.155062
C         4.172616   -8.409674   -1.252913
C         5.055205   -9.426490   -1.651258
S         5.833097  -10.792519   -0.034804
C         6.609413   -9.443642    0.904691
C         6.321675   -9.414974    2.409621
H         6.845821   -8.535674    2.824541
N         6.896452  -10.536810    3.107722
C         7.941065  -10.383700    3.960648
C         8.483418  -11.667594    4.560018
O         8.437236   -9.301966    4.230590
C         4.858375   -9.203905    2.826393
N         4.072253   -8.532751    1.966677
C         2.711550   -8.181787    2.300249
O         4.464578   -9.555171    3.935082
H         1.017126   -9.222169   -1.727588
H         3.154848  -11.256483   -1.671984
H         1.414904  -11.486648   -1.751435
H         1.218130  -10.642311    0.618250
H         2.949310  -10.273613    0.585845
H         3.325975  -12.812527    0.119857
H         1.680041  -13.041272    0.737107
H         2.427848  -11.684420    2.825153
H         4.016990  -11.583236    2.070857
H         6.190131  -12.699293    5.719271
H         5.049399  -13.256685    6.970600
H         5.273893  -10.398284    5.873084
H         5.812089  -10.929936    7.494215
H         2.926766  -10.330079    5.327590
H         1.741755  -10.893546    6.560810
H         2.144049  -12.587263    4.728984
H         2.552577  -13.213074    6.334828
H         3.896013   -8.713986   10.279334
H         5.483777   -8.870046   12.222896
H         6.515570  -12.868951   11.056295
H         4.974555  -12.705244    9.097212
H         1.522741  -13.994686    3.035554
H         4.598221  -15.848170    3.436987
H         3.671036  -17.272277    3.948468
H         2.331227  -16.067776    6.438931
H         3.158145  -15.813981    8.769468
H         5.604940  -15.662211    9.220594
H         7.210698  -15.705785    7.310047
H         6.372569  -15.885258    4.986997
H         4.588152   -7.440013   -0.962084
H         6.068967   -9.115393   -1.916811
H         4.694517  -10.228720   -2.298611
H         6.285516   -8.482008    0.467172
H         7.702761   -9.481981    0.787546
H         6.529758  -11.470074    2.936504
H         8.462509  -11.572708    5.655585
H         9.537511  -11.765529    4.263313
H         7.922964  -12.558808    4.250793
H         4.341507   -8.438424    0.985118
H         2.683721   -7.471647    3.141604
H         2.129254   -9.069943    2.595789
H         2.249083   -7.724834    1.414970
