92
-1 1
O        -2.313430    4.215176   -5.581366
C        -1.625028    3.201403   -5.801518
N        -2.346287    2.078738   -6.320968
C        -2.217788    0.729914   -5.809872
C        -2.325135    0.629474   -4.290243
C        -2.000899   -0.744642   -3.708903
C        -1.431328   -0.587201   -2.304463
C        -0.990798   -1.882063   -1.623997
H        -0.396611   -2.446251   -2.360150
C         0.049586   -1.555482   -0.543399
N        -0.324448   -1.106840    0.673759
C         0.702734   -0.873451    1.680061
C         0.609485    0.544855    2.222714
N        -0.736796    0.777968    2.725944
C        -1.744451    0.628158    1.688882
C        -1.674218   -0.789623    1.121814
C        -1.106597    1.084850    3.998546
C        -0.064760    0.956665    5.082936
C         0.090109    2.009118    5.989607
C         0.971691    1.903076    7.061142
C         1.675756    0.717184    7.234292
F         2.517158    0.604775    8.265885
C         1.520389   -0.357462    6.368088
C         0.647880   -0.228877    5.289947
O        -2.238184    1.429959    4.299135
O         1.230046   -1.704866   -0.855240
N        -2.125527   -2.676127   -1.193422
C        -2.124691   -3.876399   -0.551445
C        -0.777753   -4.536406   -0.284028
C        -0.257633   -4.339872    1.129657
C        -1.121482   -4.282947    2.229770
C        -0.614801   -4.145123    3.522034
C         0.762130   -4.082663    3.737084
C         1.628862   -4.139925    2.646323
C         1.121354   -4.257022    1.353550
O        -3.164503   -4.403133   -0.194414
C        -0.219798    3.143313   -5.603779
C         0.699536    2.082234   -6.009802
S         1.370845    0.903168   -4.599977
C         2.157537    2.195000   -3.584742
C         1.845031    2.169486   -2.086613
H         2.374170    3.037087   -1.653733
N         2.410974    1.028662   -1.409570
C         3.560956    1.135854   -0.695585
C         4.040374   -0.145380   -0.039983
O         4.179746    2.180449   -0.575044
C         0.380274    2.379271   -1.672326
N        -0.406461    3.041684   -2.530151
C        -1.764229    3.400270   -2.189103
O        -0.000062    2.024549   -0.556756
H        -3.316350    2.380090   -6.339300
H        -1.255530    0.287113   -6.111326
H        -2.991252    0.109893   -6.296608
H        -3.319780    0.974668   -3.958030
H        -1.593859    1.343928   -3.889886
H        -1.231371   -1.232955   -4.331765
H        -2.882812   -1.409927   -3.720163
H        -2.132014   -0.032531   -1.656995
H        -0.540351    0.049100   -2.393873
H         1.677540   -1.055874    1.219282
H         0.556533   -1.604429    2.492603
H         0.797884    1.252053    1.398415
H         1.352905    0.707506    3.010712
H        -1.547497    1.354113    0.884525
H        -2.728606    0.815410    2.133537
H        -2.382360   -0.883217    0.297373
H        -1.966494   -1.520069    1.898044
H        -0.496294    2.919010    5.848873
H         1.115264    2.721019    7.768783
H         2.078158   -1.278206    6.545716
H         0.512982   -1.073549    4.610402
H        -3.055837   -2.305421   -1.356875
H        -0.009661   -4.215910   -1.001132
H        -0.952820   -5.611548   -0.445214
H        -2.198746   -4.355436    2.063762
H        -1.303761   -4.094155    4.368408
H         1.156860   -3.984206    4.751226
H         2.708706   -4.075360    2.798403
H         1.804398   -4.263423    0.501039
H         0.206847    4.129986   -5.397169
H         1.641230    2.465698   -6.429068
H         0.291922    1.358395   -6.727961
H         1.841330    3.165843   -3.997593
H         3.250124    2.137869   -3.692784
H         1.943367    0.125695   -1.451006
H         4.023535   -0.000130    1.050690
H         5.087400   -0.310772   -0.329276
H         3.430860   -1.018568   -0.304654
H        -0.171498    3.120936   -3.536659
H        -1.784245    4.129162   -1.363365
H        -2.345466    2.519690   -1.868632
H        -2.229572    3.837591   -3.083467
