-1 1
 OpenBabel05232414493D

 92 94  0  0  1  0  0  0  0  0999 V2000
    2.0848   -7.3537   -1.0793 O   0  0  0  0  0  0  0  0  0  0  0  0
    2.7337   -8.3773   -1.3310 C   0  0  0  0  0  0  0  0  0  0  0  0
    1.9937   -9.4985   -1.7679 N   0  0  0  0  0  0  0  0  0  0  0  0
    2.2005  -10.8563   -1.3004 C   0  0  0  0  0  0  0  0  0  0  0  0
    2.1915  -10.9792    0.2195 C   0  0  0  0  0  0  0  0  0  0  0  0
    2.5499  -12.3601    0.7606 C   0  0  0  0  0  0  0  0  0  0  0  0
    3.1280  -12.2229    2.1637 C   0  0  0  0  0  0  0  0  0  0  0  0
    3.5838  -13.5259    2.8165 C   0  0  1  0  0  0  0  0  0  0  0  0
    4.1950  -14.0619    2.0734 H   0  0  0  0  0  0  0  0  0  0  0  0
    4.6046  -13.2120    3.9204 C   0  0  0  0  0  0  0  0  0  0  0  0
    4.2012  -12.7691    5.1325 N   0  0  0  0  0  0  0  0  0  0  0  0
    5.2045  -12.5258    6.1592 C   0  0  0  0  0  0  0  0  0  0  0  0
    5.0834  -11.1072    6.6957 C   0  0  0  0  0  0  0  0  0  0  0  0
    3.7259  -10.8921    7.1780 N   0  0  0  0  0  0  0  0  0  0  0  0
    2.7347  -11.0616    6.1280 C   0  0  0  0  0  0  0  0  0  0  0  0
    2.8401  -12.4774    5.5616 C   0  0  0  0  0  0  0  0  0  0  0  0
    3.3347  -10.5754    8.4412 C   0  0  0  0  0  0  0  0  0  0  0  0
    4.3631  -10.6786    9.5411 C   0  0  0  0  0  0  0  0  0  0  0  0
    4.4920   -9.6146   10.4382 C   0  0  0  0  0  0  0  0  0  0  0  0
    5.3602   -9.6975   11.5226 C   0  0  0  0  0  0  0  0  0  0  0  0
    6.0772  -10.8721   11.7181 C   0  0  0  0  0  0  0  0  0  0  0  0
    6.9059  -10.9624   12.7623 F   0  0  0  0  0  0  0  0  0  0  0  0
    5.9479  -11.9578   10.8615 C   0  0  0  0  0  0  0  0  0  0  0  0
    5.0886  -11.8523    9.7703 C   0  0  0  0  0  0  0  0  0  0  0  0
    2.1947  -10.2415    8.7230 O   0  0  0  0  0  0  0  0  0  0  0  0
    5.7904  -13.3656    3.6385 O   0  0  0  0  0  0  0  0  0  0  0  0
    2.4565  -14.3484    3.2162 N   0  0  0  0  0  0  0  0  0  0  0  0
    2.4657  -15.5601    3.8354 C   0  0  0  0  0  0  0  0  0  0  0  0
    3.8186  -16.1960    4.1285 C   0  0  0  0  0  0  0  0  0  0  0  0
    4.2963  -16.0074    5.5583 C   0  0  0  0  0  0  0  0  0  0  0  0
    3.4021  -15.9778    6.6349 C   0  0  0  0  0  0  0  0  0  0  0  0
    3.8708  -15.8439    7.9419 C   0  0  0  0  0  0  0  0  0  0  0  0
    5.2398  -15.7583    8.1952 C   0  0  0  0  0  0  0  0  0  0  0  0
    6.1368  -15.7890    7.1280 C   0  0  0  0  0  0  0  0  0  0  0  0
    5.6670  -15.9021    5.8207 C   0  0  0  0  0  0  0  0  0  0  0  0
    1.4278  -16.1146    4.1551 O   0  0  0  0  0  0  0  0  0  0  0  0
    4.1726   -8.4097   -1.2529 C   0  0  0  0  0  3  0  0  0  0  0  0
    5.0552   -9.4265   -1.6513 C   0  0  0  0  0  0  0  0  0  0  0  0
    5.8331  -10.7925   -0.0348 S   0  0  0  0  0  0  0  0  0  0  0  0
    6.6094   -9.4436    0.9047 C   0  0  0  0  0  0  0  0  0  0  0  0
    6.3217   -9.4150    2.4096 C   0  0  2  0  0  0  0  0  0  0  0  0
    6.8458   -8.5357    2.8245 H   0  0  0  0  0  0  0  0  0  0  0  0
    6.8965  -10.5368    3.1077 N   0  0  0  0  0  0  0  0  0  0  0  0
    7.9411  -10.3837    3.9606 C   0  0  0  0  0  0  0  0  0  0  0  0
    8.4834  -11.6676    4.5600 C   0  0  0  0  0  0  0  0  0  0  0  0
    8.4372   -9.3020    4.2306 O   0  0  0  0  0  0  0  0  0  0  0  0
    4.8584   -9.2039    2.8264 C   0  0  0  0  0  0  0  0  0  0  0  0
    4.0723   -8.5328    1.9667 N   0  0  0  0  0  0  0  0  0  0  0  0
    2.7115   -8.1818    2.3002 C   0  0  0  0  0  0  0  0  0  0  0  0
    4.4646   -9.5552    3.9351 O   0  0  0  0  0  0  0  0  0  0  0  0
    1.0171   -9.2222   -1.7276 H   0  0  0  0  0  0  0  0  0  0  0  0
    3.1548  -11.2565   -1.6720 H   0  0  0  0  0  0  0  0  0  0  0  0
    1.4149  -11.4866   -1.7514 H   0  0  0  0  0  0  0  0  0  0  0  0
    1.2181  -10.6423    0.6182 H   0  0  0  0  0  0  0  0  0  0  0  0
    2.9493  -10.2736    0.5858 H   0  0  0  0  0  0  0  0  0  0  0  0
    3.3260  -12.8125    0.1199 H   0  0  0  0  0  0  0  0  0  0  0  0
    1.6800  -13.0413    0.7371 H   0  0  0  0  0  0  0  0  0  0  0  0
    2.4278  -11.6844    2.8252 H   0  0  0  0  0  0  0  0  0  0  0  0
    4.0170  -11.5832    2.0709 H   0  0  0  0  0  0  0  0  0  0  0  0
    6.1901  -12.6993    5.7193 H   0  0  0  0  0  0  0  0  0  0  0  0
    5.0494  -13.2567    6.9706 H   0  0  0  0  0  0  0  0  0  0  0  0
    5.2739  -10.3983    5.8731 H   0  0  0  0  0  0  0  0  0  0  0  0
    5.8121  -10.9299    7.4942 H   0  0  0  0  0  0  0  0  0  0  0  0
    2.9268  -10.3301    5.3276 H   0  0  0  0  0  0  0  0  0  0  0  0
    1.7418  -10.8935    6.5608 H   0  0  0  0  0  0  0  0  0  0  0  0
    2.1440  -12.5873    4.7290 H   0  0  0  0  0  0  0  0  0  0  0  0
    2.5526  -13.2131    6.3348 H   0  0  0  0  0  0  0  0  0  0  0  0
    3.8960   -8.7140   10.2793 H   0  0  0  0  0  0  0  0  0  0  0  0
    5.4838   -8.8700   12.2229 H   0  0  0  0  0  0  0  0  0  0  0  0
    6.5156  -12.8690   11.0563 H   0  0  0  0  0  0  0  0  0  0  0  0
    4.9746  -12.7052    9.0972 H   0  0  0  0  0  0  0  0  0  0  0  0
    1.5227  -13.9947    3.0356 H   0  0  0  0  0  0  0  0  0  0  0  0
    4.5982  -15.8482    3.4370 H   0  0  0  0  0  0  0  0  0  0  0  0
    3.6710  -17.2723    3.9485 H   0  0  0  0  0  0  0  0  0  0  0  0
    2.3312  -16.0678    6.4389 H   0  0  0  0  0  0  0  0  0  0  0  0
    3.1581  -15.8140    8.7695 H   0  0  0  0  0  0  0  0  0  0  0  0
    5.6049  -15.6622    9.2206 H   0  0  0  0  0  0  0  0  0  0  0  0
    7.2107  -15.7058    7.3100 H   0  0  0  0  0  0  0  0  0  0  0  0
    6.3726  -15.8853    4.9870 H   0  0  0  0  0  0  0  0  0  0  0  0
    4.5882   -7.4400   -0.9621 H   0  0  0  0  0  0  0  0  0  0  0  0
    6.0690   -9.1154   -1.9168 H   0  0  0  0  0  0  0  0  0  0  0  0
    4.6945  -10.2287   -2.2986 H   0  0  0  0  0  0  0  0  0  0  0  0
    6.2855   -8.4820    0.4672 H   0  0  0  0  0  0  0  0  0  0  0  0
    7.7028   -9.4820    0.7875 H   0  0  0  0  0  0  0  0  0  0  0  0
    6.5298  -11.4701    2.9365 H   0  0  0  0  0  0  0  0  0  0  0  0
    8.4625  -11.5727    5.6556 H   0  0  0  0  0  0  0  0  0  0  0  0
    9.5375  -11.7655    4.2633 H   0  0  0  0  0  0  0  0  0  0  0  0
    7.9230  -12.5588    4.2508 H   0  0  0  0  0  0  0  0  0  0  0  0
    4.3415   -8.4384    0.9851 H   0  0  0  0  0  0  0  0  0  0  0  0
    2.6837   -7.4716    3.1416 H   0  0  0  0  0  0  0  0  0  0  0  0
    2.1293   -9.0699    2.5958 H   0  0  0  0  0  0  0  0  0  0  0  0
    2.2491   -7.7248    1.4150 H   0  0  0  0  0  0  0  0  0  0  0  0
  2 37  1  0  0  0  0
  2  1  2  0  0  0  0
  3 51  1  0  0  0  0
  3  2  1  0  0  0  0
  3  4  1  0  0  0  0
  4  5  1  0  0  0  0
  5 55  1  0  0  0  0
  5 54  1  0  0  0  0
  5  6  1  0  0  0  0
  6  7  1  0  0  0  0
  7  8  1  0  0  0  0
  7 58  1  0  0  0  0
  8  9  1  6  0  0  0
  8 27  1  0  0  0  0
  8 10  1  0  0  0  0
 10 11  1  0  0  0  0
 11 16  1  0  0  0  0
 11 12  1  0  0  0  0
 12 13  1  0  0  0  0
 12 61  1  0  0  0  0
 13 14  1  0  0  0  0
 13 63  1  0  0  0  0
 14 17  1  0  0  0  0
 15 65  1  0  0  0  0
 15 14  1  0  0  0  0
 16 15  1  0  0  0  0
 16 67  1  0  0  0  0
 17 25  2  0  0  0  0
 17 18  1  0  0  0  0
 18 24  2  0  0  0  0
 18 19  1  0  0  0  0
 19 20  2  0  0  0  0
 20 21  1  0  0  0  0
 20 69  1  0  0  0  0
 21 22  1  0  0  0  0
 23 70  1  0  0  0  0
 23 21  2  0  0  0  0
 24 23  1  0  0  0  0
 26 10  2  0  0  0  0
 27 28  1  0  0  0  0
 28 29  1  0  0  0  0
 28 36  2  0  0  0  0
 29 30  1  0  0  0  0
 30 35  2  0  0  0  0
 30 31  1  0  0  0  0
 31 32  2  0  0  0  0
 32 33  1  0  0  0  0
 32 76  1  0  0  0  0
 33 77  1  0  0  0  0
 34 78  1  0  0  0  0
 34 33  2  0  0  0  0
 35 34  1  0  0  0  0
 37 80  1  0  0  0  0
 38 37  1  0  0  0  0
 38 39  1  0  0  0  0
 39 40  1  0  0  0  0
 40 41  1  0  0  0  0
 41 42  1  1  0  0  0
 41 47  1  0  0  0  0
 41 43  1  0  0  0  0
 43 44  1  0  0  0  0
 44 46  2  0  0  0  0
 44 45  1  0  0  0  0
 45 86  1  0  0  0  0
 47 50  2  0  0  0  0
 48 49  1  0  0  0  0
 48 47  1  0  0  0  0
 49 91  1  0  0  0  0
 49 90  1  0  0  0  0
 52  4  1  0  0  0  0
 53  4  1  0  0  0  0
 56  6  1  0  0  0  0
 57  6  1  0  0  0  0
 59  7  1  0  0  0  0
 60 12  1  0  0  0  0
 62 13  1  0  0  0  0
 64 15  1  0  0  0  0
 66 16  1  0  0  0  0
 68 19  1  0  0  0  0
 71 24  1  0  0  0  0
 72 27  1  0  0  0  0
 73 29  1  0  0  0  0
 74 29  1  0  0  0  0
 75 31  1  0  0  0  0
 79 35  1  0  0  0  0
 81 38  1  0  0  0  0
 82 38  1  0  0  0  0
 83 40  1  0  0  0  0
 84 40  1  0  0  0  0
 85 43  1  0  0  0  0
 87 45  1  0  0  0  0
 88 45  1  0  0  0  0
 89 48  1  0  0  0  0
 92 49  1  0  0  0  0
M  END
