-1 1
 OpenBabel05192410563D

 92 94  0  0  1  0  0  0  0  0999 V2000
   -2.3134    4.2152   -5.5814 O   0  0  0  0  0  0  0  0  0  0  0  0
   -1.6250    3.2014   -5.8015 C   0  0  0  0  0  0  0  0  0  0  0  0
   -2.3463    2.0787   -6.3210 N   0  0  0  0  0  0  0  0  0  0  0  0
   -2.2178    0.7299   -5.8099 C   0  0  0  0  0  0  0  0  0  0  0  0
   -2.3251    0.6295   -4.2902 C   0  0  0  0  0  0  0  0  0  0  0  0
   -2.0009   -0.7446   -3.7089 C   0  0  0  0  0  0  0  0  0  0  0  0
   -1.4313   -0.5872   -2.3045 C   0  0  0  0  0  0  0  0  0  0  0  0
   -0.9908   -1.8821   -1.6240 C   0  0  1  0  0  0  0  0  0  0  0  0
   -0.3966   -2.4463   -2.3601 H   0  0  0  0  0  0  0  0  0  0  0  0
    0.0496   -1.5555   -0.5434 C   0  0  0  0  0  0  0  0  0  0  0  0
   -0.3244   -1.1068    0.6738 N   0  0  0  0  0  0  0  0  0  0  0  0
    0.7027   -0.8735    1.6801 C   0  0  0  0  0  0  0  0  0  0  0  0
    0.6095    0.5449    2.2227 C   0  0  0  0  0  0  0  0  0  0  0  0
   -0.7368    0.7780    2.7259 N   0  0  0  0  0  0  0  0  0  0  0  0
   -1.7445    0.6282    1.6889 C   0  0  0  0  0  0  0  0  0  0  0  0
   -1.6742   -0.7896    1.1218 C   0  0  0  0  0  0  0  0  0  0  0  0
   -1.1066    1.0849    3.9985 C   0  0  0  0  0  0  0  0  0  0  0  0
   -0.0648    0.9567    5.0829 C   0  0  0  0  0  0  0  0  0  0  0  0
    0.0901    2.0091    5.9896 C   0  0  0  0  0  0  0  0  0  0  0  0
    0.9717    1.9031    7.0611 C   0  0  0  0  0  0  0  0  0  0  0  0
    1.6758    0.7172    7.2343 C   0  0  0  0  0  0  0  0  0  0  0  0
    2.5172    0.6048    8.2659 F   0  0  0  0  0  0  0  0  0  0  0  0
    1.5204   -0.3575    6.3681 C   0  0  0  0  0  0  0  0  0  0  0  0
    0.6479   -0.2289    5.2899 C   0  0  0  0  0  0  0  0  0  0  0  0
   -2.2382    1.4300    4.2991 O   0  0  0  0  0  0  0  0  0  0  0  0
    1.2300   -1.7049   -0.8552 O   0  0  0  0  0  0  0  0  0  0  0  0
   -2.1255   -2.6761   -1.1934 N   0  0  0  0  0  0  0  0  0  0  0  0
   -2.1247   -3.8764   -0.5514 C   0  0  0  0  0  0  0  0  0  0  0  0
   -0.7778   -4.5364   -0.2840 C   0  0  0  0  0  0  0  0  0  0  0  0
   -0.2576   -4.3399    1.1297 C   0  0  0  0  0  0  0  0  0  0  0  0
   -1.1215   -4.2829    2.2298 C   0  0  0  0  0  0  0  0  0  0  0  0
   -0.6148   -4.1451    3.5220 C   0  0  0  0  0  0  0  0  0  0  0  0
    0.7621   -4.0827    3.7371 C   0  0  0  0  0  0  0  0  0  0  0  0
    1.6289   -4.1399    2.6463 C   0  0  0  0  0  0  0  0  0  0  0  0
    1.1214   -4.2570    1.3536 C   0  0  0  0  0  0  0  0  0  0  0  0
   -3.1645   -4.4031   -0.1944 O   0  0  0  0  0  0  0  0  0  0  0  0
   -0.2198    3.1433   -5.6038 C   0  0  0  0  0  3  0  0  0  0  0  0
    0.6995    2.0822   -6.0098 C   0  0  0  0  0  0  0  0  0  0  0  0
    1.3708    0.9032   -4.6000 S   0  0  0  0  0  0  0  0  0  0  0  0
    2.1575    2.1950   -3.5847 C   0  0  0  0  0  0  0  0  0  0  0  0
    1.8450    2.1695   -2.0866 C   0  0  2  0  0  0  0  0  0  0  0  0
    2.3742    3.0371   -1.6537 H   0  0  0  0  0  0  0  0  0  0  0  0
    2.4110    1.0287   -1.4096 N   0  0  0  0  0  0  0  0  0  0  0  0
    3.5610    1.1359   -0.6956 C   0  0  0  0  0  0  0  0  0  0  0  0
    4.0404   -0.1454   -0.0400 C   0  0  0  0  0  0  0  0  0  0  0  0
    4.1797    2.1804   -0.5750 O   0  0  0  0  0  0  0  0  0  0  0  0
    0.3803    2.3793   -1.6723 C   0  0  0  0  0  0  0  0  0  0  0  0
   -0.4065    3.0417   -2.5302 N   0  0  0  0  0  0  0  0  0  0  0  0
   -1.7642    3.4003   -2.1891 C   0  0  0  0  0  0  0  0  0  0  0  0
   -0.0001    2.0245   -0.5568 O   0  0  0  0  0  0  0  0  0  0  0  0
   -3.3163    2.3801   -6.3393 H   0  0  0  0  0  0  0  0  0  0  0  0
   -1.2555    0.2871   -6.1113 H   0  0  0  0  0  0  0  0  0  0  0  0
   -2.9913    0.1099   -6.2966 H   0  0  0  0  0  0  0  0  0  0  0  0
   -3.3198    0.9747   -3.9580 H   0  0  0  0  0  0  0  0  0  0  0  0
   -1.5939    1.3439   -3.8899 H   0  0  0  0  0  0  0  0  0  0  0  0
   -1.2314   -1.2330   -4.3318 H   0  0  0  0  0  0  0  0  0  0  0  0
   -2.8828   -1.4099   -3.7202 H   0  0  0  0  0  0  0  0  0  0  0  0
   -2.1320   -0.0325   -1.6570 H   0  0  0  0  0  0  0  0  0  0  0  0
   -0.5404    0.0491   -2.3939 H   0  0  0  0  0  0  0  0  0  0  0  0
    1.6775   -1.0559    1.2193 H   0  0  0  0  0  0  0  0  0  0  0  0
    0.5565   -1.6044    2.4926 H   0  0  0  0  0  0  0  0  0  0  0  0
    0.7979    1.2521    1.3984 H   0  0  0  0  0  0  0  0  0  0  0  0
    1.3529    0.7075    3.0107 H   0  0  0  0  0  0  0  0  0  0  0  0
   -1.5475    1.3541    0.8845 H   0  0  0  0  0  0  0  0  0  0  0  0
   -2.7286    0.8154    2.1335 H   0  0  0  0  0  0  0  0  0  0  0  0
   -2.3824   -0.8832    0.2974 H   0  0  0  0  0  0  0  0  0  0  0  0
   -1.9665   -1.5201    1.8980 H   0  0  0  0  0  0  0  0  0  0  0  0
   -0.4963    2.9190    5.8489 H   0  0  0  0  0  0  0  0  0  0  0  0
    1.1153    2.7210    7.7688 H   0  0  0  0  0  0  0  0  0  0  0  0
    2.0782   -1.2782    6.5457 H   0  0  0  0  0  0  0  0  0  0  0  0
    0.5130   -1.0735    4.6104 H   0  0  0  0  0  0  0  0  0  0  0  0
   -3.0558   -2.3054   -1.3569 H   0  0  0  0  0  0  0  0  0  0  0  0
   -0.0097   -4.2159   -1.0011 H   0  0  0  0  0  0  0  0  0  0  0  0
   -0.9528   -5.6115   -0.4452 H   0  0  0  0  0  0  0  0  0  0  0  0
   -2.1987   -4.3554    2.0638 H   0  0  0  0  0  0  0  0  0  0  0  0
   -1.3038   -4.0942    4.3684 H   0  0  0  0  0  0  0  0  0  0  0  0
    1.1569   -3.9842    4.7512 H   0  0  0  0  0  0  0  0  0  0  0  0
    2.7087   -4.0754    2.7984 H   0  0  0  0  0  0  0  0  0  0  0  0
    1.8044   -4.2634    0.5010 H   0  0  0  0  0  0  0  0  0  0  0  0
    0.2068    4.1300   -5.3972 H   0  0  0  0  0  0  0  0  0  0  0  0
    1.6412    2.4657   -6.4291 H   0  0  0  0  0  0  0  0  0  0  0  0
    0.2919    1.3584   -6.7280 H   0  0  0  0  0  0  0  0  0  0  0  0
    1.8413    3.1658   -3.9976 H   0  0  0  0  0  0  0  0  0  0  0  0
    3.2501    2.1379   -3.6928 H   0  0  0  0  0  0  0  0  0  0  0  0
    1.9434    0.1257   -1.4510 H   0  0  0  0  0  0  0  0  0  0  0  0
    4.0235   -0.0001    1.0507 H   0  0  0  0  0  0  0  0  0  0  0  0
    5.0874   -0.3108   -0.3293 H   0  0  0  0  0  0  0  0  0  0  0  0
    3.4309   -1.0186   -0.3047 H   0  0  0  0  0  0  0  0  0  0  0  0
   -0.1715    3.1209   -3.5367 H   0  0  0  0  0  0  0  0  0  0  0  0
   -1.7842    4.1292   -1.3634 H   0  0  0  0  0  0  0  0  0  0  0  0
   -2.3455    2.5197   -1.8686 H   0  0  0  0  0  0  0  0  0  0  0  0
   -2.2296    3.8376   -3.0835 H   0  0  0  0  0  0  0  0  0  0  0  0
  2 37  1  0  0  0  0
  2  1  2  0  0  0  0
  3  4  1  0  0  0  0
  3  2  1  0  0  0  0
  4  5  1  0  0  0  0
  5 54  1  0  0  0  0
  5 55  1  0  0  0  0
  5  6  1  0  0  0  0
  6  7  1  0  0  0  0
  7 58  1  0  0  0  0
  7  8  1  0  0  0  0
  8  9  1  6  0  0  0
  8 27  1  0  0  0  0
  8 10  1  0  0  0  0
 10 11  1  0  0  0  0
 11 16  1  0  0  0  0
 11 12  1  0  0  0  0
 12 13  1  0  0  0  0
 12 61  1  0  0  0  0
 13 14  1  0  0  0  0
 13 63  1  0  0  0  0
 14 17  1  0  0  0  0
 15 65  1  0  0  0  0
 15 14  1  0  0  0  0
 16 15  1  0  0  0  0
 16 67  1  0  0  0  0
 17 25  2  0  0  0  0
 17 18  1  0  0  0  0
 18 24  2  0  0  0  0
 18 19  1  0  0  0  0
 19 20  2  0  0  0  0
 20 21  1  0  0  0  0
 20 69  1  0  0  0  0
 21 22  1  0  0  0  0
 23 70  1  0  0  0  0
 23 21  2  0  0  0  0
 24 23  1  0  0  0  0
 26 10  2  0  0  0  0
 27 28  1  0  0  0  0
 28 29  1  0  0  0  0
 28 36  2  0  0  0  0
 29 30  1  0  0  0  0
 30 35  2  0  0  0  0
 30 31  1  0  0  0  0
 31 32  2  0  0  0  0
 32 33  1  0  0  0  0
 32 76  1  0  0  0  0
 33 77  1  0  0  0  0
 34 78  1  0  0  0  0
 34 33  2  0  0  0  0
 35 34  1  0  0  0  0
 37 80  1  0  0  0  0
 38 37  1  0  0  0  0
 38 39  1  0  0  0  0
 39 40  1  0  0  0  0
 40 41  1  0  0  0  0
 41 47  1  0  0  0  0
 41 42  1  1  0  0  0
 41 43  1  0  0  0  0
 43 44  1  0  0  0  0
 44 46  2  0  0  0  0
 44 45  1  0  0  0  0
 45 86  1  0  0  0  0
 47 50  2  0  0  0  0
 48 49  1  0  0  0  0
 48 47  1  0  0  0  0
 49 91  1  0  0  0  0
 49 90  1  0  0  0  0
 51  3  1  0  0  0  0
 52  4  1  0  0  0  0
 53  4  1  0  0  0  0
 56  6  1  0  0  0  0
 57  6  1  0  0  0  0
 59  7  1  0  0  0  0
 60 12  1  0  0  0  0
 62 13  1  0  0  0  0
 64 15  1  0  0  0  0
 66 16  1  0  0  0  0
 68 19  1  0  0  0  0
 71 24  1  0  0  0  0
 72 27  1  0  0  0  0
 73 29  1  0  0  0  0
 74 29  1  0  0  0  0
 75 31  1  0  0  0  0
 79 35  1  0  0  0  0
 81 38  1  0  0  0  0
 82 38  1  0  0  0  0
 83 40  1  0  0  0  0
 84 40  1  0  0  0  0
 85 43  1  0  0  0  0
 87 45  1  0  0  0  0
 88 45  1  0  0  0  0
 89 48  1  0  0  0  0
 92 49  1  0  0  0  0
M  END
