95
-1 1
O         1.260376    1.154984    0.976792
C         0.866241    2.253489    1.470687
N        -0.462080    2.653193    1.148353
C        -0.707084    3.890328    0.431652
C         0.084175    4.050237   -0.875167
C         0.001643    2.805544   -1.751796
C         0.649192    2.956526   -3.129438
C         0.869137    1.617427   -3.860781
H         1.240887    1.819025   -4.875738
C         2.089274    0.919174   -3.208954
N         1.975329    0.088051   -2.140319
C         0.803197   -0.554787   -1.571633
C         0.910718   -2.060260   -1.751313
N         2.146776   -2.568486   -1.168960
C         3.353811   -1.849876   -1.541714
C         3.169874   -0.338971   -1.437226
C         2.192503   -3.865488   -0.715790
N         1.022368   -4.499321   -0.578692
C         0.968111   -5.727015   -0.064485
C        -0.410038   -6.309938    0.095770
C         2.111779   -6.426564    0.320484
C         3.344765   -5.796123    0.140581
C         3.408058   -4.517296   -0.382382
O         3.178518    1.281050   -3.630707
N        -0.398562    0.929503   -3.946328
C        -0.598989   -0.287240   -4.505530
C        -2.009505   -0.871239   -4.284408
C        -2.767168   -0.240920   -3.141881
C        -2.579098   -0.680870   -1.825949
C        -3.086734    0.032866   -0.742363
C        -3.836822    1.199154   -0.942512
C        -4.383209    1.966126    0.231224
C        -4.068304    1.613149   -2.259733
C        -3.541325    0.909192   -3.340805
O         0.254744   -0.895071   -5.121921
C         1.604339    3.066532    2.336480
C         0.981413    3.888922    3.367118
S         0.723013    2.950412    5.087210
C         0.760770    1.227483    4.526399
C        -0.483535    0.448683    3.999422
H        -0.905463   -0.148211    4.825201
N        -0.005280   -0.503154    3.031405
C        -0.318400   -1.819152    3.086382
C         0.146011   -2.624366    1.890196
O        -0.925878   -2.333440    4.012920
C        -1.716810    1.179237    3.422694
N        -2.105558    2.299919    4.064978
C        -3.165758    3.114690    3.534644
O        -2.360764    0.690077    2.504520
H        -0.951459    1.865205    0.734061
H        -0.501955    4.755087    1.082802
H        -1.788373    3.921113    0.206580
H         1.141300    4.243929   -0.627432
H        -0.288465    4.939735   -1.415484
H        -1.063660    2.518881   -1.851035
H         0.493216    1.989856   -1.202329
H         1.634441    3.436550   -3.031734
H         0.037667    3.614584   -3.771583
H        -0.108111   -0.188391   -2.035373
H         0.756574   -0.273731   -0.506842
H         0.869880   -2.305355   -2.831110
H         0.075825   -2.568308   -1.256622
H         3.659534   -2.115254   -2.573647
H         4.172434   -2.127219   -0.865884
H         4.034416    0.172342   -1.874338
H         3.052125   -0.035419   -0.382910
H        -0.967534   -6.225786   -0.848366
H        -0.967581   -5.738829    0.854483
H        -0.378650   -7.363899    0.404634
H         2.040433   -7.431856    0.738213
H         4.270324   -6.311756    0.409868
H         4.374313   -4.039329   -0.527674
H        -1.156861    1.306204   -3.391991
H        -1.859745   -1.949273   -4.129907
H        -2.554459   -0.760121   -5.235738
H        -1.986730   -1.580182   -1.640536
H        -2.871600   -0.289151    0.281007
H        -5.446818    1.723466    0.392607
H        -4.316293    3.052442    0.064618
H        -3.830299    1.705853    1.145164
H        -4.657294    2.516697   -2.442454
H        -3.705324    1.277053   -4.358225
H         2.652762    2.782250    2.466824
H        -0.031905    4.218611    3.109845
H         1.574745    4.748566    3.709250
H         1.189186    0.646419    5.354019
H         1.503001    1.227856    3.715055
H         0.467625   -0.111871    2.206766
H         0.552528   -3.584818    2.233880
H         0.896412   -2.104695    1.278412
H        -0.723711   -2.848287    1.254467
H        -1.409598    2.739263    4.673588
H        -3.351990    3.953686    4.218992
H        -4.093543    2.531808    3.431982
H        -2.905274    3.514536    2.539223
