-1 1
 OpenBabel05192410563D

 94 96  0  0  1  0  0  0  0  0999 V2000
   -4.9813    0.6994   -0.2184 O   0  0  0  0  0  0  0  0  0  0  0  0
   -5.1039   -0.5392   -0.5112 C   0  0  0  0  0  0  0  0  0  0  0  0
   -4.6436   -0.9132   -1.8238 N   0  0  0  0  0  0  0  0  0  0  0  0
   -3.3620   -1.6058   -1.8672 C   0  0  0  0  0  0  0  0  0  0  0  0
   -3.4409   -3.1329   -1.7952 C   0  0  0  0  0  0  0  0  0  0  0  0
   -2.2134   -3.8628   -2.3603 C   0  0  0  0  0  0  0  0  0  0  0  0
   -0.9670   -4.0208   -1.4760 C   0  0  0  0  0  0  0  0  0  0  0  0
   -0.3242   -2.7531   -0.8918 C   0  0  1  0  0  0  0  0  0  0  0  0
   -0.9618   -2.3447   -0.0937 H   0  0  0  0  0  0  0  0  0  0  0  0
    0.9573   -3.1303   -0.1326 C   0  0  0  0  0  0  0  0  0  0  0  0
    2.1047   -3.4731   -0.8185 N   0  0  0  0  0  0  0  0  0  0  0  0
    2.3151   -3.4265   -2.2555 C   0  0  0  0  0  0  0  0  0  0  0  0
    3.7029   -2.8352   -2.5692 C   0  0  0  0  0  0  0  0  0  0  0  0
    4.0792   -1.8228   -1.6037 N   0  0  0  0  0  0  0  0  0  0  0  0
    4.1239   -2.2630   -0.2077 C   0  0  0  0  0  0  0  0  0  0  0  0
    3.3272   -3.5647   -0.0514 C   0  0  0  0  0  0  0  0  0  0  0  0
    3.9909   -0.5101   -1.9665 C   0  0  0  0  0  0  0  0  0  0  0  0
    4.4549    0.5020   -0.9475 C   0  0  0  0  0  0  0  0  0  0  0  0
    5.7691    0.4612   -0.4707 C   0  0  0  0  0  0  0  0  0  0  0  0
    6.2421    1.4517    0.3833 C   0  0  0  0  0  0  0  0  0  0  0  0
    5.3760    2.4737    0.7567 C   0  0  0  0  0  0  0  0  0  0  0  0
    5.8709    3.5255    1.6609 N   0  0  0  0  0  0  0  0  0  0  0  0
    7.0149    3.4362    2.0558 O   0  0  0  0  0  0  0  0  0  0  0  0
    5.1096    4.4206    1.9548 O   0  0  0  0  0  0  0  0  0  0  0  0
    4.0616    2.5333    0.3024 C   0  0  0  0  0  0  0  0  0  0  0  0
    3.6066    1.5437   -0.5604 C   0  0  0  0  0  0  0  0  0  0  0  0
    3.6508   -0.1409   -3.0775 O   0  0  0  0  0  0  0  0  0  0  0  0
    0.9101   -3.2158    1.0780 O   0  0  0  0  0  0  0  0  0  0  0  0
   -0.1570   -1.7121   -1.8979 N   0  0  0  0  0  0  0  0  0  0  0  0
    0.5899   -0.5936   -1.7063 C   0  0  0  0  0  0  0  0  0  0  0  0
    0.3320    0.5459   -2.6839 C   0  0  0  0  0  0  0  0  0  0  0  0
   -0.3321    1.7287   -2.0112 C   0  0  0  0  0  0  0  0  0  0  0  0
   -1.6193    1.6019   -1.4777 C   0  0  0  0  0  0  0  0  0  0  0  0
   -2.2471    2.6687   -0.8438 C   0  0  0  0  0  0  0  0  0  0  0  0
   -1.5848    3.8920   -0.7305 C   0  0  0  0  0  0  0  0  0  0  0  0
   -0.3064    4.0384   -1.2684 C   0  0  0  0  0  0  0  0  0  0  0  0
    0.3148    2.9632   -1.9081 C   0  0  0  0  0  0  0  0  0  0  0  0
    1.4544   -0.5190   -0.8494 O   0  0  0  0  0  0  0  0  0  0  0  0
   -5.6120   -1.5308    0.3011 C   0  0  0  0  0  3  0  0  0  0  0  0
   -6.0165   -1.2544    1.6937 C   0  0  0  0  0  0  0  0  0  0  0  0
   -4.7946   -1.7860    3.0351 S   0  0  0  0  0  0  0  0  0  0  0  0
   -3.2170   -1.3569    2.2689 C   0  0  0  0  0  0  0  0  0  0  0  0
   -2.7105    0.0622    2.5054 C   0  0  2  0  0  0  0  0  0  0  0  0
   -2.5286    0.2246    3.5795 H   0  0  0  0  0  0  0  0  0  0  0  0
   -3.6508    1.0723    2.0705 N   0  0  0  0  0  0  0  0  0  0  0  0
   -3.6356    2.3119    2.5868 C   0  0  0  0  0  0  0  0  0  0  0  0
   -4.6885    3.2415    2.0184 C   0  0  0  0  0  0  0  0  0  0  0  0
   -2.8434    2.6885    3.4534 O   0  0  0  0  0  0  0  0  0  0  0  0
   -1.3906    0.2731    1.7456 C   0  0  0  0  0  0  0  0  0  0  0  0
   -0.6283    1.2724    2.2359 N   0  0  0  0  0  0  0  0  0  0  0  0
    0.5849    1.7037    1.5883 C   0  0  0  0  0  0  0  0  0  0  0  0
   -1.0948   -0.3926    0.7624 O   0  0  0  0  0  0  0  0  0  0  0  0
   -4.5441   -0.0294   -2.3169 H   0  0  0  0  0  0  0  0  0  0  0  0
   -2.6745   -1.2358   -1.0810 H   0  0  0  0  0  0  0  0  0  0  0  0
   -2.9090   -1.3473   -2.8453 H   0  0  0  0  0  0  0  0  0  0  0  0
   -4.3263   -3.4312   -2.3790 H   0  0  0  0  0  0  0  0  0  0  0  0
   -3.6319   -3.4467   -0.7562 H   0  0  0  0  0  0  0  0  0  0  0  0
   -1.9274   -3.3942   -3.3218 H   0  0  0  0  0  0  0  0  0  0  0  0
   -2.5164   -4.8867   -2.6340 H   0  0  0  0  0  0  0  0  0  0  0  0
   -0.2163   -4.5804   -2.0603 H   0  0  0  0  0  0  0  0  0  0  0  0
   -1.2179   -4.6541   -0.6103 H   0  0  0  0  0  0  0  0  0  0  0  0
    1.5357   -2.8194   -2.7241 H   0  0  0  0  0  0  0  0  0  0  0  0
    2.2552   -4.4413   -2.6940 H   0  0  0  0  0  0  0  0  0  0  0  0
    3.6997   -2.3727   -3.5626 H   0  0  0  0  0  0  0  0  0  0  0  0
    4.4705   -3.6267   -2.5661 H   0  0  0  0  0  0  0  0  0  0  0  0
    3.6576   -1.4925    0.4202 H   0  0  0  0  0  0  0  0  0  0  0  0
    5.1630   -2.4127    0.1369 H   0  0  0  0  0  0  0  0  0  0  0  0
    3.0638   -3.7171    1.0010 H   0  0  0  0  0  0  0  0  0  0  0  0
    3.9134   -4.4370   -0.3866 H   0  0  0  0  0  0  0  0  0  0  0  0
    6.4327   -0.3502   -0.7781 H   0  0  0  0  0  0  0  0  0  0  0  0
    7.2630    1.4476    0.7630 H   0  0  0  0  0  0  0  0  0  0  0  0
    3.4104    3.3437    0.6289 H   0  0  0  0  0  0  0  0  0  0  0  0
    2.5749    1.5443   -0.9081 H   0  0  0  0  0  0  0  0  0  0  0  0
   -0.9293   -1.6197   -2.5439 H   0  0  0  0  0  0  0  0  0  0  0  0
   -0.2893    0.1978   -3.5249 H   0  0  0  0  0  0  0  0  0  0  0  0
    1.3143    0.8264   -3.0920 H   0  0  0  0  0  0  0  0  0  0  0  0
   -2.1496    0.6524   -1.5309 H   0  0  0  0  0  0  0  0  0  0  0  0
   -3.2541    2.5069   -0.4516 H   0  0  0  0  0  0  0  0  0  0  0  0
   -2.0668    4.7318   -0.2245 H   0  0  0  0  0  0  0  0  0  0  0  0
    0.2154    4.9955   -1.1894 H   0  0  0  0  0  0  0  0  0  0  0  0
    1.3160    3.0856   -2.3316 H   0  0  0  0  0  0  0  0  0  0  0  0
   -5.7213   -2.5415   -0.0961 H   0  0  0  0  0  0  0  0  0  0  0  0
   -6.9204   -1.8047    1.9975 H   0  0  0  0  0  0  0  0  0  0  0  0
   -6.1954   -0.1807    1.8395 H   0  0  0  0  0  0  0  0  0  0  0  0
   -3.3278   -1.5423    1.1890 H   0  0  0  0  0  0  0  0  0  0  0  0
   -2.4646   -2.0675    2.6386 H   0  0  0  0  0  0  0  0  0  0  0  0
   -4.2235    0.8938    1.2055 H   0  0  0  0  0  0  0  0  0  0  0  0
   -5.2629    2.7660    1.2111 H   0  0  0  0  0  0  0  0  0  0  0  0
   -4.1938    4.1515    1.6487 H   0  0  0  0  0  0  0  0  0  0  0  0
   -5.3659    3.5419    2.8312 H   0  0  0  0  0  0  0  0  0  0  0  0
   -1.0851    1.8755    2.9233 H   0  0  0  0  0  0  0  0  0  0  0  0
    0.4213    2.6035    0.9715 H   0  0  0  0  0  0  0  0  0  0  0  0
    0.9376    0.8965    0.9324 H   0  0  0  0  0  0  0  0  0  0  0  0
    1.3598    1.9254    2.3386 H   0  0  0  0  0  0  0  0  0  0  0  0
  2  1  2  0  0  0  0
  2 39  1  0  0  0  0
  3  2  1  0  0  0  0
  4  3  1  0  0  0  0
  4  5  1  0  0  0  0
  4 54  1  0  0  0  0
  5 57  1  0  0  0  0
  6  5  1  0  0  0  0
  6  7  1  0  0  0  0
  7  8  1  0  0  0  0
  7 61  1  0  0  0  0
  8 10  1  0  0  0  0
  8  9  1  1  0  0  0
 10 28  2  0  0  0  0
 11 10  1  0  0  0  0
 11 16  1  0  0  0  0
 12 11  1  0  0  0  0
 13 65  1  0  0  0  0
 13 12  1  0  0  0  0
 13 14  1  0  0  0  0
 14 15  1  0  0  0  0
 15 16  1  0  0  0  0
 15 67  1  0  0  0  0
 15 66  1  0  0  0  0
 16 68  1  0  0  0  0
 17 14  1  0  0  0  0
 17 18  1  0  0  0  0
 18 26  2  0  0  0  0
 18 19  1  0  0  0  0
 19 20  2  0  0  0  0
 20 21  1  0  0  0  0
 20 71  1  0  0  0  0
 21 22  1  0  0  0  0
 22 24  2  0  0  0  0
 22 23  2  0  0  0  0
 25 72  1  0  0  0  0
 25 21  2  0  0  0  0
 26 25  1  0  0  0  0
 27 17  2  0  0  0  0
 29 30  1  0  0  0  0
 29  8  1  0  0  0  0
 30 38  2  0  0  0  0
 31 32  1  0  0  0  0
 31 30  1  0  0  0  0
 32 37  2  0  0  0  0
 32 33  1  0  0  0  0
 33 34  2  0  0  0  0
 34 35  1  0  0  0  0
 34 78  1  0  0  0  0
 35 79  1  0  0  0  0
 36 80  1  0  0  0  0
 36 35  2  0  0  0  0
 37 36  1  0  0  0  0
 39 40  1  0  0  0  0
 40 84  1  0  0  0  0
 40 83  1  0  0  0  0
 40 41  1  0  0  0  0
 42 43  1  0  0  0  0
 42 86  1  0  0  0  0
 42 41  1  0  0  0  0
 43 44  1  1  0  0  0
 45 43  1  0  0  0  0
 45 46  1  0  0  0  0
 46 48  2  0  0  0  0
 47 46  1  0  0  0  0
 47 90  1  0  0  0  0
 49 50  1  0  0  0  0
 49 43  1  0  0  0  0
 50 91  1  0  0  0  0
 51 50  1  0  0  0  0
 51 94  1  0  0  0  0
 52 49  2  0  0  0  0
 53  3  1  0  0  0  0
 55  4  1  0  0  0  0
 56  5  1  0  0  0  0
 58  6  1  0  0  0  0
 59  6  1  0  0  0  0
 60  7  1  0  0  0  0
 62 12  1  0  0  0  0
 63 12  1  0  0  0  0
 64 13  1  0  0  0  0
 69 16  1  0  0  0  0
 70 19  1  0  0  0  0
 73 26  1  0  0  0  0
 74 29  1  0  0  0  0
 75 31  1  0  0  0  0
 76 31  1  0  0  0  0
 77 33  1  0  0  0  0
 81 37  1  0  0  0  0
 82 39  1  0  0  0  0
 85 42  1  0  0  0  0
 87 45  1  0  0  0  0
 88 47  1  0  0  0  0
 89 47  1  0  0  0  0
 92 51  1  0  0  0  0
 93 51  1  0  0  0  0
M  END
