94
-1 1
O        -4.981258    0.699407   -0.218444
C        -5.103856   -0.539248   -0.511171
N        -4.643627   -0.913154   -1.823824
C        -3.361982   -1.605812   -1.867173
C        -3.440889   -3.132906   -1.795214
C        -2.213413   -3.862754   -2.360344
C        -0.966956   -4.020751   -1.476032
C        -0.324243   -2.753064   -0.891767
H        -0.961835   -2.344652   -0.093735
C         0.957266   -3.130252   -0.132637
N         2.104740   -3.473107   -0.818530
C         2.315114   -3.426486   -2.255544
C         3.702921   -2.835211   -2.569166
N         4.079204   -1.822830   -1.603717
C         4.123936   -2.262984   -0.207740
C         3.327154   -3.564747   -0.051395
C         3.990946   -0.510076   -1.966523
C         4.454850    0.502001   -0.947475
C         5.769133    0.461177   -0.470659
C         6.242129    1.451720    0.383302
C         5.375995    2.473662    0.756698
N         5.870911    3.525528    1.660855
O         7.014931    3.436164    2.055790
O         5.109560    4.420597    1.954773
C         4.061582    2.533324    0.302425
C         3.606634    1.543738   -0.560401
O         3.650780   -0.140862   -3.077542
O         0.910145   -3.215800    1.077993
N        -0.157043   -1.712101   -1.897893
C         0.589893   -0.593580   -1.706347
C         0.332016    0.545873   -2.683929
C        -0.332075    1.728746   -2.011163
C        -1.619333    1.601930   -1.477748
C        -2.247051    2.668723   -0.843803
C        -1.584835    3.892006   -0.730460
C        -0.306367    4.038353   -1.268416
C         0.314834    2.963184   -1.908132
O         1.454403   -0.519035   -0.849389
C        -5.612042   -1.530793    0.301097
C        -6.016545   -1.254376    1.693705
S        -4.794608   -1.785980    3.035067
C        -3.217033   -1.356900    2.268872
C        -2.710498    0.062191    2.505431
H        -2.528570    0.224574    3.579497
N        -3.650840    1.072333    2.070490
C        -3.635602    2.311874    2.586775
C        -4.688499    3.241541    2.018355
O        -2.843379    2.688501    3.453366
C        -1.390640    0.273121    1.745633
N        -0.628265    1.272379    2.235883
C         0.584913    1.703693    1.588324
O        -1.094771   -0.392583    0.762432
H        -4.544088   -0.029383   -2.316861
H        -2.674506   -1.235769   -1.081023
H        -2.909016   -1.347297   -2.845280
H        -4.326296   -3.431202   -2.379019
H        -3.631861   -3.446688   -0.756160
H        -1.927412   -3.394220   -3.321758
H        -2.516400   -4.886656   -2.633953
H        -0.216317   -4.580356   -2.060309
H        -1.217911   -4.654051   -0.610279
H         1.535666   -2.819433   -2.724102
H         2.255241   -4.441297   -2.693968
H         3.699668   -2.372651   -3.562585
H         4.470480   -3.626744   -2.566068
H         3.657594   -1.492463    0.420249
H         5.162992   -2.412681    0.136885
H         3.063795   -3.717137    1.000990
H         3.913362   -4.437029   -0.386613
H         6.432698   -0.350154   -0.778126
H         7.262967    1.447619    0.763013
H         3.410440    3.343727    0.628911
H         2.574924    1.544271   -0.908147
H        -0.929269   -1.619718   -2.543910
H        -0.289327    0.197763   -3.524892
H         1.314324    0.826380   -3.092032
H        -2.149644    0.652405   -1.530900
H        -3.254072    2.506899   -0.451590
H        -2.066810    4.731812   -0.224471
H         0.215383    4.995457   -1.189358
H         1.315951    3.085584   -2.331599
H        -5.721276   -2.541510   -0.096093
H        -6.920358   -1.804728    1.997482
H        -6.195408   -0.180658    1.839463
H        -3.327793   -1.542283    1.188957
H        -2.464564   -2.067513    2.638558
H        -4.223515    0.893790    1.205510
H        -5.262898    2.766018    1.211141
H        -4.193844    4.151457    1.648655
H        -5.365889    3.541945    2.831184
H        -1.085100    1.875471    2.923305
H         0.421261    2.603489    0.971513
H         0.937554    0.896519    0.932374
H         1.359767    1.925379    2.338647
