-1 1
 OpenBabel05232414493D

 94 95  0  0  1  0  0  0  0  0999 V2000
   -0.0709   19.1285   -1.8610 O   0  0  0  0  0  0  0  0  0  0  0  0
    0.9061   18.3954   -2.0755 C   0  0  0  0  0  0  0  0  0  0  0  0
    1.5379   18.5160   -3.3063 N   0  0  0  0  0  0  0  0  0  0  0  0
    2.9048   18.1515   -3.5988 C   0  0  0  0  0  0  0  0  0  0  0  0
    3.0589   16.7049   -4.0785 C   0  0  0  0  0  0  0  0  0  0  0  0
    4.3961   16.3530   -4.7315 C   0  0  0  0  0  0  0  0  0  0  0  0
    5.6248   16.1854   -3.8298 C   0  0  0  0  0  0  0  0  0  0  0  0
    6.2034   17.4342   -3.1349 C   0  0  1  0  0  0  0  0  0  0  0  0
    5.5844   17.7146   -2.2692 H   0  0  0  0  0  0  0  0  0  0  0  0
    7.5511   17.0597   -2.4897 C   0  0  0  0  0  0  0  0  0  0  0  0
    8.6168   16.6962   -3.2871 N   0  0  0  0  0  0  0  0  0  0  0  0
    8.7415   16.9155   -4.7189 C   0  0  0  0  0  0  0  0  0  0  0  0
   10.1200   17.5230   -5.0470 C   0  0  0  0  0  0  0  0  0  0  0  0
   10.5977   18.3676   -3.9731 N   0  0  0  0  0  0  0  0  0  0  0  0
   10.7331   17.7278   -2.6649 C   0  0  0  0  0  0  0  0  0  0  0  0
    9.8812   16.4533   -2.6277 C   0  0  0  0  0  0  0  0  0  0  0  0
   10.5924   19.7202   -4.1374 C   0  0  0  0  0  0  0  0  0  0  0  0
   11.1694   20.5213   -2.9939 C   0  0  0  0  0  0  0  0  0  0  0  0
   12.5550   20.5170   -2.7974 C   0  0  0  0  0  0  0  0  0  0  0  0
   13.1293   21.3133   -1.8132 C   0  0  0  0  0  0  0  0  0  0  0  0
   12.2944   22.1024   -1.0279 C   0  0  0  0  0  0  0  0  0  0  0  0
   12.8975   22.9483    0.0157 N   0  0  0  0  0  0  0  0  0  0  0  0
   14.1038   22.9106    0.1440 O   0  0  0  0  0  0  0  0  0  0  0  0
   12.1560   23.6335    0.6850 O   0  0  0  0  0  0  0  0  0  0  0  0
   10.9135   22.1142   -1.1964 C   0  0  0  0  0  0  0  0  0  0  0  0
   10.3515   21.3164   -2.1870 C   0  0  0  0  0  0  0  0  0  0  0  0
   10.2439   20.2752   -5.1658 O   0  0  0  0  0  0  0  0  0  0  0  0
    7.6139   16.9561   -1.2813 O   0  0  0  0  0  0  0  0  0  0  0  0
    6.2516   18.5762   -4.0363 N   0  0  0  0  0  0  0  0  0  0  0  0
    7.0497   19.6548   -3.8236 C   0  0  0  0  0  0  0  0  0  0  0  0
    6.7923   20.8460   -4.7334 C   0  0  0  0  0  0  0  0  0  0  0  0
    6.9301   22.1701   -4.0252 C   0  0  0  0  0  0  0  0  0  0  0  0
    5.8614   22.6839   -3.2852 C   0  0  0  0  0  0  0  0  0  0  0  0
    5.9917   23.8804   -2.5848 C   0  0  0  0  0  0  0  0  0  0  0  0
    7.1993   24.5788   -2.6200 C   0  0  0  0  0  0  0  0  0  0  0  0
    8.2684   24.0783   -3.3647 C   0  0  0  0  0  0  0  0  0  0  0  0
    8.1337   22.8808   -4.0680 C   0  0  0  0  0  0  0  0  0  0  0  0
    7.9940   19.6221   -3.0511 O   0  0  0  0  0  0  0  0  0  0  0  0
    1.4150   17.4419   -1.1192 C   0  0  0  0  0  3  0  0  0  0  0  0
    0.8460   17.3817    0.1413 C   0  0  0  0  0  3  0  0  0  0  0  0
    1.8326   18.9610    1.6923 S   0  0  0  0  0  1  0  0  0  0  0  0
    3.3334   19.2058    0.7287 C   0  0  0  0  0  0  0  0  0  0  0  0
    3.4752   20.5958    0.0831 C   0  0  2  0  0  0  0  0  0  0  0  0
    3.5016   21.3645    0.8774 H   0  0  0  0  0  0  0  0  0  0  0  0
    2.3672   20.8530   -0.7962 N   0  0  0  0  0  0  0  0  0  0  0  0
    2.3001   21.9779   -1.5326 C   0  0  0  0  0  0  0  0  0  0  0  0
    1.0359   22.1600   -2.3452 C   0  0  0  0  0  0  0  0  0  0  0  0
    3.2089   22.8037   -1.5511 O   0  0  0  0  0  0  0  0  0  0  0  0
    4.8111   20.6178   -0.6648 C   0  0  0  0  0  0  0  0  0  0  0  0
    5.8063   21.2240    0.0215 N   0  0  0  0  0  0  0  0  0  0  0  0
    7.1893   21.2183   -0.3824 C   0  0  0  0  0  0  0  0  0  0  0  0
    4.9867   20.0314   -1.7257 O   0  0  0  0  0  0  0  0  0  0  0  0
    1.1438   19.2791   -3.8411 H   0  0  0  0  0  0  0  0  0  0  0  0
    3.5524   18.3799   -2.7353 H   0  0  0  0  0  0  0  0  0  0  0  0
    3.2413   18.8229   -4.4099 H   0  0  0  0  0  0  0  0  0  0  0  0
    2.2556   16.5241   -4.8113 H   0  0  0  0  0  0  0  0  0  0  0  0
    2.8617   16.0152   -3.2418 H   0  0  0  0  0  0  0  0  0  0  0  0
    4.6207   17.0780   -5.5364 H   0  0  0  0  0  0  0  0  0  0  0  0
    4.2691   15.3911   -5.2545 H   0  0  0  0  0  0  0  0  0  0  0  0
    6.4148   15.7236   -4.4427 H   0  0  0  0  0  0  0  0  0  0  0  0
    5.3955   15.4602   -3.0324 H   0  0  0  0  0  0  0  0  0  0  0  0
    7.9445   17.5813   -5.0615 H   0  0  0  0  0  0  0  0  0  0  0  0
    8.6348   15.9628   -5.2719 H   0  0  0  0  0  0  0  0  0  0  0  0
   10.0598   18.1330   -5.9555 H   0  0  0  0  0  0  0  0  0  0  0  0
   10.8603   16.7249   -5.2246 H   0  0  0  0  0  0  0  0  0  0  0  0
   10.3629   18.4145   -1.8929 H   0  0  0  0  0  0  0  0  0  0  0  0
   11.7881   17.4907   -2.4377 H   0  0  0  0  0  0  0  0  0  0  0  0
    9.6859   16.1681   -1.5883 H   0  0  0  0  0  0  0  0  0  0  0  0
   10.3944   15.6134   -3.1252 H   0  0  0  0  0  0  0  0  0  0  0  0
   13.1911   19.8895   -3.4260 H   0  0  0  0  0  0  0  0  0  0  0  0
   14.2049   21.3358   -1.6430 H   0  0  0  0  0  0  0  0  0  0  0  0
   10.2926   22.7429   -0.5589 H   0  0  0  0  0  0  0  0  0  0  0  0
    9.2731   21.2848   -2.3375 H   0  0  0  0  0  0  0  0  0  0  0  0
    5.3714   18.7774   -4.4930 H   0  0  0  0  0  0  0  0  0  0  0  0
    5.8007   20.7621   -5.2028 H   0  0  0  0  0  0  0  0  0  0  0  0
    7.5513   20.7662   -5.5290 H   0  0  0  0  0  0  0  0  0  0  0  0
    4.9191   22.1386   -3.2119 H   0  0  0  0  0  0  0  0  0  0  0  0
    5.1355   24.2279   -2.0038 H   0  0  0  0  0  0  0  0  0  0  0  0
    7.3089   25.5152   -2.0669 H   0  0  0  0  0  0  0  0  0  0  0  0
    9.2176   24.6195   -3.3961 H   0  0  0  0  0  0  0  0  0  0  0  0
    8.9759   22.4724   -4.6339 H   0  0  0  0  0  0  0  0  0  0  0  0
    2.2841   16.8286   -1.3617 H   0  0  0  0  0  0  0  0  0  0  0  0
    1.0882   16.5501    0.8023 H   0  0  0  0  0  0  0  0  0  0  0  0
   -0.1312   17.8449    0.2788 H   0  0  0  0  0  0  0  0  0  0  0  0
    3.3372   18.4740   -0.1036 H   0  0  0  0  0  0  0  0  0  0  0  0
    4.2316   19.0209    1.3374 H   0  0  0  0  0  0  0  0  0  0  0  0
    1.5393   20.2667   -0.6841 H   0  0  0  0  0  0  0  0  0  0  0  0
    0.3755   21.2813   -2.3021 H   0  0  0  0  0  0  0  0  0  0  0  0
    1.3248   22.3727   -3.3850 H   0  0  0  0  0  0  0  0  0  0  0  0
    0.5058   23.0475   -1.9687 H   0  0  0  0  0  0  0  0  0  0  0  0
    5.5337   21.7874    0.8144 H   0  0  0  0  0  0  0  0  0  0  0  0
    7.4635   22.1352   -0.9325 H   0  0  0  0  0  0  0  0  0  0  0  0
    7.3638   20.3598   -1.0418 H   0  0  0  0  0  0  0  0  0  0  0  0
    7.8371   21.1239    0.5024 H   0  0  0  0  0  0  0  0  0  0  0  0
  2  1  2  0  0  0  0
  2 39  1  0  0  0  0
  3  2  1  0  0  0  0
  4  3  1  0  0  0  0
  4 54  1  0  0  0  0
  5  4  1  0  0  0  0
  5 57  1  0  0  0  0
  6  5  1  0  0  0  0
  6  7  1  0  0  0  0
  7  8  1  0  0  0  0
  7 61  1  0  0  0  0
  8 10  1  0  0  0  0
  8  9  1  1  0  0  0
 10 28  2  0  0  0  0
 11 16  1  0  0  0  0
 11 10  1  0  0  0  0
 12 11  1  0  0  0  0
 13 12  1  0  0  0  0
 13 14  1  0  0  0  0
 14 15  1  0  0  0  0
 15 16  1  0  0  0  0
 15 67  1  0  0  0  0
 15 66  1  0  0  0  0
 16 68  1  0  0  0  0
 17 14  1  0  0  0  0
 17 18  1  0  0  0  0
 18 19  2  0  0  0  0
 18 26  1  0  0  0  0
 19 20  1  0  0  0  0
 20 71  1  0  0  0  0
 20 21  2  0  0  0  0
 21 22  1  0  0  0  0
 22 23  2  0  0  0  0
 22 24  2  0  0  0  0
 25 21  1  0  0  0  0
 25 72  1  0  0  0  0
 26 25  2  0  0  0  0
 27 17  2  0  0  0  0
 29 30  1  0  0  0  0
 29  8  1  0  0  0  0
 30 38  2  0  0  0  0
 31 32  1  0  0  0  0
 31 30  1  0  0  0  0
 32 33  1  0  0  0  0
 33 77  1  0  0  0  0
 33 34  2  0  0  0  0
 34 78  1  0  0  0  0
 35 34  1  0  0  0  0
 35 79  1  0  0  0  0
 36 35  2  0  0  0  0
 37 32  2  0  0  0  0
 37 36  1  0  0  0  0
 39 40  1  0  0  0  0
 40 84  1  0  0  0  0
 40 83  1  0  0  0  0
 42 86  1  0  0  0  0
 42 41  1  0  0  0  0
 43 42  1  0  0  0  0
 43 44  1  1  0  0  0
 45 87  1  0  0  0  0
 45 43  1  0  0  0  0
 46 45  1  0  0  0  0
 47 88  1  0  0  0  0
 47 90  1  0  0  0  0
 47 46  1  0  0  0  0
 48 46  2  0  0  0  0
 49 50  1  0  0  0  0
 49 43  1  0  0  0  0
 50 91  1  0  0  0  0
 51 50  1  0  0  0  0
 51 94  1  0  0  0  0
 52 49  2  0  0  0  0
 53  3  1  0  0  0  0
 55  4  1  0  0  0  0
 56  5  1  0  0  0  0
 58  6  1  0  0  0  0
 59  6  1  0  0  0  0
 60  7  1  0  0  0  0
 62 12  1  0  0  0  0
 63 12  1  0  0  0  0
 64 13  1  0  0  0  0
 65 13  1  0  0  0  0
 69 16  1  0  0  0  0
 70 19  1  0  0  0  0
 73 26  1  0  0  0  0
 74 29  1  0  0  0  0
 75 31  1  0  0  0  0
 76 31  1  0  0  0  0
 80 36  1  0  0  0  0
 81 37  1  0  0  0  0
 82 39  1  0  0  0  0
 85 42  1  0  0  0  0
 89 47  1  0  0  0  0
 92 51  1  0  0  0  0
 93 51  1  0  0  0  0
M  END
