92
-1 1
O         0.591999   -0.565264   -4.491276
C        -0.078158   -0.564049   -3.455116
N         0.454380   -0.907532   -2.268363
C        -0.183579   -0.874143   -0.965760
C        -1.241596   -1.955466   -0.765860
C        -1.866118   -1.868620    0.623136
C        -0.969084   -2.411466    1.741766
C        -1.155660   -1.667512    3.081272
H        -0.623434   -2.209781    3.879588
C        -0.629335   -0.219118    2.974766
N         0.706401   -0.023696    2.848187
C         1.722061   -1.025581    3.133336
C         2.866675   -0.925102    2.126387
N         3.404430    0.413578    2.136088
C         2.396243    1.389994    1.738680
C         1.205224    1.346279    2.685880
C         4.556138    0.769806    2.781465
N         4.854851    2.075203    2.808044
C         5.982587    2.504945    3.372465
C         6.210048    3.992389    3.329815
C         6.902625    1.638978    3.964325
C         6.601939    0.274764    3.952619
C         5.433789   -0.180654    3.370361
O        -1.434150    0.702029    2.954479
N        -2.547447   -1.529926    3.441010
C        -3.425363   -2.549768    3.543530
C        -4.890619   -2.103312    3.453765
C        -5.204600   -1.875175    1.993046
C        -5.061294   -0.611634    1.411817
C        -5.163793   -0.434186    0.033851
C        -5.427175   -1.538071   -0.772767
Br        -5.532330   -1.321339   -2.653457
C        -5.599720   -2.804729   -0.217287
C        -5.483066   -2.964537    1.160735
O        -3.111796   -3.724523    3.618619
C        -1.520490   -0.159623   -3.537886
C        -2.033728    0.911929   -2.930495
S         0.383000    2.766398   -0.811505
C         1.340475    3.048985   -2.336256
C         2.336690    1.936375   -2.712154
H         1.801257    0.986338   -2.747815
N         3.417527    1.778884   -1.763500
C         3.812797    0.613456   -1.221397
C         5.144291    0.684474   -0.497392
O         3.188951   -0.443406   -1.311324
C         2.964039    2.246460   -4.074092
N         2.397517    1.607273   -5.121534
C         2.824214    1.826999   -6.476533
O         3.884316    3.048678   -4.174243
H         1.475236   -0.974813   -2.248310
H        -0.591299    0.129101   -0.764620
H         0.631571   -0.990824   -0.236721
H        -0.800523   -2.953770   -0.935692
H        -2.030487   -1.825064   -1.523237
H        -2.822237   -2.410965    0.635072
H        -2.117460   -0.812467    0.817929
H         0.087678   -2.340624    1.443462
H        -1.179622   -3.477395    1.912124
H         1.294770   -2.033180    3.112238
H         2.129757   -0.857558    4.149164
H         2.505802   -1.137509    1.105576
H         3.632781   -1.674142    2.354616
H         2.046707    1.186585    0.713643
H         2.832114    2.392028    1.735196
H         0.395475    1.961702    2.276636
H         1.487357    1.744542    3.678668
H         6.251926    4.335524    2.285162
H         7.140882    4.281547    3.836974
H         5.365523    4.514835    3.803001
H         7.818934    2.017813    4.419231
H         7.288927   -0.443494    4.408128
H         5.209393   -1.245396    3.375182
H        -2.871243   -0.571084    3.319077
H        -5.053313   -1.183251    4.034974
H        -5.507805   -2.905738    3.877263
H        -4.823860    0.254718    2.034914
H        -5.013283    0.552085   -0.407221
H        -5.801851   -3.663671   -0.858800
H        -5.571123   -3.962627    1.596226
H        -2.105482   -0.735322   -4.263758
H        -1.442964    1.537401   -2.238557
H        -3.067920    1.207952   -3.133600
H         1.905965    3.995844   -2.282170
H         0.661338    3.147392   -3.201871
H         4.040305    2.575542   -1.698360
H         5.197243    1.559518    0.166324
H         5.954116    0.761421   -1.239995
H         5.286486   -0.226599    0.094059
H         1.710485    0.871228   -4.935334
H         1.981077    2.133252   -7.117139
H         3.273482    0.919117   -6.913327
H         3.578414    2.624858   -6.471710
