92
-1 1
O         4.425371    0.234332    7.173730
C         4.133957    0.441243    8.374098
N         4.625546   -0.479410    9.274347
C         4.507599   -0.548939   10.711328
C         3.130679   -1.021015   11.195427
C         2.864608   -0.677148   12.656684
C         3.688723   -1.483998   13.657049
C         3.486704   -1.015913   15.116790
H         4.024107   -1.695279   15.795024
C         3.977130    0.433941   15.261478
N         5.312788    0.663611   15.198025
C         6.348532   -0.345118   15.365709
C         7.441947   -0.169157   14.315261
N         7.956263    1.180759   14.371054
C         6.914488    2.156420   14.080928
C         5.796695    2.041317   15.113641
C         9.124223    1.531266   14.989650
N         9.374992    2.841193   15.113318
C        10.515745    3.267862   15.654854
C        10.687923    4.761766   15.726071
C        11.495039    2.394178   16.126494
C        11.243506    1.024013   16.014509
C        10.064858    0.571543   15.452850
O         3.154545    1.336351   15.335557
N         2.093042   -1.005496   15.493173
C         1.334814   -2.120881   15.566920
C        -0.172838   -1.852935   15.518441
C        -0.516641   -1.482350   14.093579
C        -0.770462   -0.158350   13.727168
C        -0.890376    0.209061   12.387795
C        -0.763141   -0.764598   11.400752
Br        -0.842174   -0.265466    9.577494
C        -0.540352   -2.098334   11.742532
C        -0.417020   -2.446891   13.083784
O         1.788971   -3.251883   15.583109
C         3.387290    1.613774    8.764651
C         3.162197    2.157805   10.025815
S         5.094542    3.230075   10.915556
C         6.003412    3.178239    9.360024
C         7.029650    2.041065    9.192390
H         6.532667    1.074544    9.351798
N         8.132298    2.125634   10.118138
C         8.470082    1.167314   11.006312
C         9.783422    1.433050   11.722800
O         7.791060    0.174922   11.235504
C         7.617428    2.123120    7.774895
N         6.868499    1.596274    6.790789
C         7.273347    1.714493    5.415086
O         8.685016    2.694995    7.572274
H         5.143131   -1.208562    8.801578
H         4.755900    0.431811   11.150061
H         5.303497   -1.221640   11.063653
H         3.016009   -2.106762   11.026064
H         2.365050   -0.532774   10.571568
H         1.799215   -0.828391   12.874323
H         3.050779    0.401150   12.804387
H         4.758789   -1.418766   13.405748
H         3.410519   -2.548512   13.603970
H         5.924744   -1.352100   15.296710
H         6.794198   -0.239631   16.373631
H         7.047658   -0.334162   13.299835
H         8.233502   -0.910509   14.467488
H         6.516670    1.975259   13.067986
H         7.342942    3.162294   14.101580
H         4.948139    2.678932   14.841174
H         6.167690    2.360714   16.105470
H        10.657394    5.191069   14.713369
H        11.635946    5.044742   16.204000
H         9.855288    5.209740   16.288597
H        12.419873    2.770694   16.565787
H        11.979673    0.299081   16.371933
H         9.881515   -0.497677   15.370028
H         1.669926   -0.082642   15.420894
H        -0.448879   -1.040620   16.207413
H        -0.678716   -2.774506   15.833996
H        -0.839703    0.615440   14.496389
H        -1.054824    1.251944   12.113729
H        -0.433363   -2.853453   10.962566
H        -0.190217   -3.481216   13.353727
H         3.146648    2.225527    7.891724
H         3.089273    1.547938   10.921467
H         2.540781    3.054133   10.066490
H         6.514417    4.138954    9.184275
H         5.262107    3.046897    8.550181
H         8.831141    2.813346    9.857977
H         9.690688    2.316902   12.371358
H        10.590638    1.622003   10.998456
H        10.042166    0.566929   12.342357
H         5.983313    1.101806    6.986705
H         6.444904    1.380794    4.776437
H         8.163339    1.101350    5.190116
H         7.526201    2.757105    5.165006
