-1 1
 OpenBabel05232413493D

 92 93  0  0  1  0  0  0  0  0999 V2000
    0.5920   -0.5653   -4.4913 O   0  0  0  0  0  0  0  0  0  0  0  0
   -0.0782   -0.5640   -3.4551 C   0  0  0  0  0  0  0  0  0  0  0  0
    0.4544   -0.9075   -2.2684 N   0  0  0  0  0  0  0  0  0  0  0  0
   -0.1836   -0.8741   -0.9658 C   0  0  0  0  0  0  0  0  0  0  0  0
   -1.2416   -1.9555   -0.7659 C   0  0  0  0  0  0  0  0  0  0  0  0
   -1.8661   -1.8686    0.6231 C   0  0  0  0  0  0  0  0  0  0  0  0
   -0.9691   -2.4115    1.7418 C   0  0  0  0  0  0  0  0  0  0  0  0
   -1.1557   -1.6675    3.0813 C   0  0  1  0  0  0  0  0  0  0  0  0
   -0.6234   -2.2098    3.8796 H   0  0  0  0  0  0  0  0  0  0  0  0
   -0.6293   -0.2191    2.9748 C   0  0  0  0  0  0  0  0  0  0  0  0
    0.7064   -0.0237    2.8482 N   0  0  0  0  0  0  0  0  0  0  0  0
    1.7221   -1.0256    3.1333 C   0  0  0  0  0  0  0  0  0  0  0  0
    2.8667   -0.9251    2.1264 C   0  0  0  0  0  0  0  0  0  0  0  0
    3.4044    0.4136    2.1361 N   0  0  0  0  0  0  0  0  0  0  0  0
    2.3962    1.3900    1.7387 C   0  0  0  0  0  0  0  0  0  0  0  0
    1.2052    1.3463    2.6859 C   0  0  0  0  0  0  0  0  0  0  0  0
    4.5561    0.7698    2.7815 C   0  0  0  0  0  0  0  0  0  0  0  0
    4.8549    2.0752    2.8080 N   0  0  0  0  0  0  0  0  0  0  0  0
    5.9826    2.5049    3.3725 C   0  0  0  0  0  0  0  0  0  0  0  0
    6.2100    3.9924    3.3298 C   0  0  0  0  0  0  0  0  0  0  0  0
    6.9026    1.6390    3.9643 C   0  0  0  0  0  0  0  0  0  0  0  0
    6.6019    0.2748    3.9526 C   0  0  0  0  0  0  0  0  0  0  0  0
    5.4338   -0.1807    3.3704 C   0  0  0  0  0  0  0  0  0  0  0  0
   -1.4342    0.7020    2.9545 O   0  0  0  0  0  0  0  0  0  0  0  0
   -2.5474   -1.5299    3.4410 N   0  0  0  0  0  0  0  0  0  0  0  0
   -3.4254   -2.5498    3.5435 C   0  0  0  0  0  0  0  0  0  0  0  0
   -4.8906   -2.1033    3.4538 C   0  0  0  0  0  0  0  0  0  0  0  0
   -5.2046   -1.8752    1.9930 C   0  0  0  0  0  0  0  0  0  0  0  0
   -5.0613   -0.6116    1.4118 C   0  0  0  0  0  0  0  0  0  0  0  0
   -5.1638   -0.4342    0.0339 C   0  0  0  0  0  0  0  0  0  0  0  0
   -5.4272   -1.5381   -0.7728 C   0  0  0  0  0  0  0  0  0  0  0  0
   -5.5323   -1.3213   -2.6535 Br  0  0  0  0  0  0  0  0  0  0  0  0
   -5.5997   -2.8047   -0.2173 C   0  0  0  0  0  0  0  0  0  0  0  0
   -5.4831   -2.9645    1.1607 C   0  0  0  0  0  0  0  0  0  0  0  0
   -3.1118   -3.7245    3.6186 O   0  0  0  0  0  0  0  0  0  0  0  0
   -1.5205   -0.1596   -3.5379 C   0  0  0  0  0  0  0  0  0  0  0  0
   -2.0337    0.9119   -2.9305 C   0  0  0  0  0  0  0  0  0  0  0  0
    0.3830    2.7664   -0.8115 S   0  0  0  0  0  1  0  0  0  0  0  0
    1.3405    3.0490   -2.3363 C   0  0  0  0  0  0  0  0  0  0  0  0
    2.3367    1.9364   -2.7122 C   0  0  2  0  0  0  0  0  0  0  0  0
    1.8013    0.9863   -2.7478 H   0  0  0  0  0  0  0  0  0  0  0  0
    3.4175    1.7789   -1.7635 N   0  0  0  0  0  0  0  0  0  0  0  0
    3.8128    0.6135   -1.2214 C   0  0  0  0  0  0  0  0  0  0  0  0
    5.1443    0.6845   -0.4974 C   0  0  0  0  0  0  0  0  0  0  0  0
    3.1890   -0.4434   -1.3113 O   0  0  0  0  0  0  0  0  0  0  0  0
    2.9640    2.2465   -4.0741 C   0  0  0  0  0  0  0  0  0  0  0  0
    2.3975    1.6073   -5.1215 N   0  0  0  0  0  0  0  0  0  0  0  0
    2.8242    1.8270   -6.4765 C   0  0  0  0  0  0  0  0  0  0  0  0
    3.8843    3.0487   -4.1742 O   0  0  0  0  0  0  0  0  0  0  0  0
    1.4752   -0.9748   -2.2483 H   0  0  0  0  0  0  0  0  0  0  0  0
   -0.5913    0.1291   -0.7646 H   0  0  0  0  0  0  0  0  0  0  0  0
    0.6316   -0.9908   -0.2367 H   0  0  0  0  0  0  0  0  0  0  0  0
   -0.8005   -2.9538   -0.9357 H   0  0  0  0  0  0  0  0  0  0  0  0
   -2.0305   -1.8251   -1.5232 H   0  0  0  0  0  0  0  0  0  0  0  0
   -2.8222   -2.4110    0.6351 H   0  0  0  0  0  0  0  0  0  0  0  0
   -2.1175   -0.8125    0.8179 H   0  0  0  0  0  0  0  0  0  0  0  0
    0.0877   -2.3406    1.4435 H   0  0  0  0  0  0  0  0  0  0  0  0
   -1.1796   -3.4774    1.9121 H   0  0  0  0  0  0  0  0  0  0  0  0
    1.2948   -2.0332    3.1122 H   0  0  0  0  0  0  0  0  0  0  0  0
    2.1298   -0.8576    4.1492 H   0  0  0  0  0  0  0  0  0  0  0  0
    2.5058   -1.1375    1.1056 H   0  0  0  0  0  0  0  0  0  0  0  0
    3.6328   -1.6741    2.3546 H   0  0  0  0  0  0  0  0  0  0  0  0
    2.0467    1.1866    0.7136 H   0  0  0  0  0  0  0  0  0  0  0  0
    2.8321    2.3920    1.7352 H   0  0  0  0  0  0  0  0  0  0  0  0
    0.3955    1.9617    2.2766 H   0  0  0  0  0  0  0  0  0  0  0  0
    1.4874    1.7445    3.6787 H   0  0  0  0  0  0  0  0  0  0  0  0
    6.2519    4.3355    2.2852 H   0  0  0  0  0  0  0  0  0  0  0  0
    7.1409    4.2815    3.8370 H   0  0  0  0  0  0  0  0  0  0  0  0
    5.3655    4.5148    3.8030 H   0  0  0  0  0  0  0  0  0  0  0  0
    7.8189    2.0178    4.4192 H   0  0  0  0  0  0  0  0  0  0  0  0
    7.2889   -0.4435    4.4081 H   0  0  0  0  0  0  0  0  0  0  0  0
    5.2094   -1.2454    3.3752 H   0  0  0  0  0  0  0  0  0  0  0  0
   -2.8712   -0.5711    3.3191 H   0  0  0  0  0  0  0  0  0  0  0  0
   -5.0533   -1.1833    4.0350 H   0  0  0  0  0  0  0  0  0  0  0  0
   -5.5078   -2.9057    3.8773 H   0  0  0  0  0  0  0  0  0  0  0  0
   -4.8239    0.2547    2.0349 H   0  0  0  0  0  0  0  0  0  0  0  0
   -5.0133    0.5521   -0.4072 H   0  0  0  0  0  0  0  0  0  0  0  0
   -5.8019   -3.6637   -0.8588 H   0  0  0  0  0  0  0  0  0  0  0  0
   -5.5711   -3.9626    1.5962 H   0  0  0  0  0  0  0  0  0  0  0  0
   -2.1055   -0.7353   -4.2638 H   0  0  0  0  0  0  0  0  0  0  0  0
   -1.4430    1.5374   -2.2386 H   0  0  0  0  0  0  0  0  0  0  0  0
   -3.0679    1.2080   -3.1336 H   0  0  0  0  0  0  0  0  0  0  0  0
    1.9060    3.9958   -2.2822 H   0  0  0  0  0  0  0  0  0  0  0  0
    0.6613    3.1474   -3.2019 H   0  0  0  0  0  0  0  0  0  0  0  0
    4.0403    2.5755   -1.6984 H   0  0  0  0  0  0  0  0  0  0  0  0
    5.1972    1.5595    0.1663 H   0  0  0  0  0  0  0  0  0  0  0  0
    5.9541    0.7614   -1.2400 H   0  0  0  0  0  0  0  0  0  0  0  0
    5.2865   -0.2266    0.0941 H   0  0  0  0  0  0  0  0  0  0  0  0
    1.7105    0.8712   -4.9353 H   0  0  0  0  0  0  0  0  0  0  0  0
    1.9811    2.1333   -7.1171 H   0  0  0  0  0  0  0  0  0  0  0  0
    3.2735    0.9191   -6.9133 H   0  0  0  0  0  0  0  0  0  0  0  0
    3.5784    2.6249   -6.4717 H   0  0  0  0  0  0  0  0  0  0  0  0
  1  2  2  0  0  0  0
  2  3  1  0  0  0  0
  3 50  1  0  0  0  0
  3  4  1  0  0  0  0
  4  5  1  0  0  0  0
  4 51  1  0  0  0  0
  4 52  1  0  0  0  0
  5  6  1  0  0  0  0
  6 55  1  0  0  0  0
  6 56  1  0  0  0  0
  6  7  1  0  0  0  0
  7 58  1  0  0  0  0
  7  8  1  0  0  0  0
  8 25  1  0  0  0  0
  8  9  1  1  0  0  0
 10  8  1  0  0  0  0
 11 10  1  0  0  0  0
 11 12  1  0  0  0  0
 12 60  1  0  0  0  0
 13 14  1  0  0  0  0
 13 62  1  0  0  0  0
 13 12  1  0  0  0  0
 14 17  1  0  0  0  0
 15 14  1  0  0  0  0
 15 16  1  0  0  0  0
 16 11  1  0  0  0  0
 16 66  1  0  0  0  0
 17 18  2  0  0  0  0
 17 23  1  0  0  0  0
 18 19  1  0  0  0  0
 19 21  2  0  0  0  0
 20 19  1  0  0  0  0
 20 69  1  0  0  0  0
 20 68  1  0  0  0  0
 21 70  1  0  0  0  0
 22 21  1  0  0  0  0
 22 71  1  0  0  0  0
 23 72  1  0  0  0  0
 23 22  2  0  0  0  0
 24 10  2  0  0  0  0
 25 26  1  0  0  0  0
 26 35  2  0  0  0  0
 27 26  1  0  0  0  0
 27 75  1  0  0  0  0
 27 74  1  0  0  0  0
 28 27  1  0  0  0  0
 29 28  1  0  0  0  0
 29 76  1  0  0  0  0
 30 29  2  0  0  0  0
 31 33  2  0  0  0  0
 31 30  1  0  0  0  0
 32 31  1  0  0  0  0
 33 34  1  0  0  0  0
 34 79  1  0  0  0  0
 34 28  2  0  0  0  0
 36  2  1  0  0  0  0
 36 37  2  0  0  0  0
 37 81  1  0  0  0  0
 39 83  1  0  0  0  0
 39 38  1  0  0  0  0
 40 41  1  6  0  0  0
 40 39  1  0  0  0  0
 40 42  1  0  0  0  0
 42 85  1  0  0  0  0
 42 43  1  0  0  0  0
 43 44  1  0  0  0  0
 44 88  1  0  0  0  0
 44 86  1  0  0  0  0
 45 43  2  0  0  0  0
 46 40  1  0  0  0  0
 47 89  1  0  0  0  0
 47 46  1  0  0  0  0
 48 92  1  0  0  0  0
 48 47  1  0  0  0  0
 49 46  2  0  0  0  0
 53  5  1  0  0  0  0
 54  5  1  0  0  0  0
 57  7  1  0  0  0  0
 59 12  1  0  0  0  0
 61 13  1  0  0  0  0
 63 15  1  0  0  0  0
 64 15  1  0  0  0  0
 65 16  1  0  0  0  0
 67 20  1  0  0  0  0
 73 25  1  0  0  0  0
 77 30  1  0  0  0  0
 78 33  1  0  0  0  0
 80 36  1  0  0  0  0
 82 37  1  0  0  0  0
 84 39  1  0  0  0  0
 87 44  1  0  0  0  0
 90 48  1  0  0  0  0
 91 48  1  0  0  0  0
M  END
