92
-1 1
O         2.410950   -1.350651   -6.095020
C         1.797341   -1.806839   -5.108302
N         2.141903   -1.137107   -3.853230
C         2.606714   -1.858366   -2.680047
C         2.696289   -0.915391   -1.485118
C         3.301202   -1.546537   -0.234399
C         3.261804   -0.623063    0.997405
C         2.234032   -1.056709    2.048105
H         2.500843   -2.065366    2.395659
C         2.360775   -0.237560    3.347308
N         1.723234    0.973089    3.452042
C         0.972974    1.668791    2.420325
C        -0.509068    1.695294    2.778883
N        -0.682841    2.313788    4.087615
C         0.070060    1.616306    5.117604
C         1.561803    1.565621    4.766846
C        -1.005082    3.648788    4.176216
N        -1.345162    4.269716    3.040319
C        -1.714391    5.552154    3.048557
C        -2.072032    6.145290    1.712358
C        -1.755235    6.309686    4.217934
C        -1.392788    5.678593    5.410478
C        -1.013135    4.349764    5.410714
O         3.031026   -0.682773    4.261774
N         0.895151   -1.140689    1.514656
C        -0.001657   -2.038056    1.998403
C        -1.362364   -1.993491    1.306992
C        -1.743874   -3.277866    0.617081
C        -0.892758   -3.883709   -0.307960
F         0.315690   -3.336662   -0.516803
C        -1.233590   -5.018658   -1.026079
C        -2.483549   -5.594752   -0.814139
C        -3.360086   -5.029530    0.109438
C        -2.987498   -3.884534    0.812026
O         0.233525   -2.798395    2.918203
C         0.804800   -2.789614   -5.115780
C        -0.130623   -3.165111   -4.056322
S        -1.717651   -2.086748   -3.734009
C        -1.217897   -1.049604   -2.327345
C        -1.056770    0.432503   -2.653278
H        -2.011967    0.826794   -3.039890
N        -0.058155    0.652622   -3.674522
C        -0.111258    1.706937   -4.505832
C         0.892324    1.720030   -5.634463
O        -0.918405    2.632357   -4.353572
C        -0.703427    1.255182   -1.401237
N        -0.831826    2.578682   -1.568245
C        -0.394229    3.526982   -0.573640
O        -0.307294    0.752597   -0.345535
H         2.861802   -0.475295   -4.142029
H         3.590341   -2.340290   -2.857167
H         1.911676   -2.671510   -2.438247
H         1.687270   -0.531225   -1.263283
H         3.295169   -0.029587   -1.767746
H         4.342919   -1.836727   -0.448890
H         2.765835   -2.482625   -0.005705
H         3.065820    0.416235    0.680765
H         4.237044   -0.605505    1.506761
H         1.116914    1.232968    1.431778
H         1.340389    2.710276    2.369507
H        -0.887078    0.661817    2.823620
H        -1.083311    2.244170    2.030703
H        -0.309996    0.583013    5.182509
H        -0.080074    2.074915    6.101044
H         2.123109    0.955993    5.485208
H         1.977033    2.589976    4.771350
H        -2.840684    5.532530    1.219022
H        -1.190808    6.149209    1.052969
H        -2.442429    7.175138    1.806794
H        -2.056603    7.357846    4.196707
H        -1.409168    6.232294    6.352782
H        -0.742623    3.866186    6.347127
H         0.608763   -0.564434    0.723078
H        -1.390185   -1.159245    0.589375
H        -2.103446   -1.782075    2.091809
H        -0.524465   -5.420996   -1.750338
H        -2.771721   -6.483067   -1.379607
H        -4.341597   -5.476265    0.280269
H        -3.679053   -3.438859    1.531530
H         0.585246   -3.165561   -6.118770
H         0.272354   -3.231550   -3.037018
H        -0.608740   -4.131648   -4.272126
H        -0.283500   -1.450170   -1.907788
H        -1.979686   -1.148490   -1.540625
H         0.704759   -0.052444   -3.762062
H         1.388851    0.753139   -5.810495
H         1.649340    2.490930   -5.421632
H         0.363295    2.029781   -6.545884
H        -1.049958    2.881460   -2.528297
H        -1.068094    3.570549    0.296945
H        -0.356040    4.525007   -1.029169
H         0.610433    3.273060   -0.199409
