92
-1 1
O         2.128831  -12.878297   -8.347809
C         1.638316  -13.275434   -7.287802
N         2.019919  -12.549770   -6.115768
C         2.509913  -13.176585   -4.896502
C         2.469357  -12.198696   -3.727050
C         3.167311  -12.726884   -2.476534
C         3.098648  -11.776790   -1.266350
C         2.124311  -12.246843   -0.181097
H         2.435020  -13.248361    0.150708
C         2.271683  -11.434999    1.121444
N         1.600550  -10.247558    1.262638
C         0.799419   -9.564934    0.261303
C        -0.669478   -9.584855    0.669181
N        -0.816612   -8.973030    1.984780
C        -0.014695   -9.658259    2.986523
C         1.466298   -9.671942    2.587955
C        -1.124223   -7.633924    2.076852
N        -1.458206   -7.006718    0.942980
C        -1.816614   -5.721127    0.954759
C        -2.167330   -5.121744   -0.380383
C        -1.849398   -4.967010    2.126552
C        -1.492203   -5.604862    3.317302
C        -1.125304   -6.937289    3.313436
O         2.987730  -11.868961    2.006552
N         0.774874  -12.369879   -0.675480
C        -0.074299  -13.312985   -0.193589
C        -1.440743  -13.323137   -0.874997
C        -1.769634  -14.630384   -1.547903
C        -0.897566  -15.204638   -2.472852
F         0.278338  -14.595778   -2.703510
C        -1.181920  -16.369894   -3.165814
C        -2.397880  -17.007392   -2.932103
C        -3.295397  -16.472298   -2.011053
C        -2.977291  -15.297884   -1.330655
O         0.207505  -14.075616    0.711356
C         0.670748  -14.327922   -7.188035
C        -0.197841  -14.569449   -6.128734
S        -2.089772  -13.188097   -5.886349
C        -1.542921  -12.208870   -4.459252
C        -1.237705  -10.746471   -4.777180
H        -2.148547  -10.269819   -5.176275
N        -0.209254  -10.614992   -5.791228
C        -0.144398   -9.555136   -6.615780
C         0.875070   -9.633719   -7.729451
O        -0.845633   -8.549581   -6.465793
C        -0.812357   -9.953144   -3.529603
N        -0.859944   -8.621342   -3.682484
C        -0.342342   -7.714359   -2.687758
O        -0.430699  -10.483439   -2.482603
H         2.681973  -11.847529   -6.440725
H         3.546058  -13.548590   -5.032268
H         1.901427  -14.056812   -4.660460
H         1.420862  -11.946104   -3.503818
H         2.947580  -11.250069   -4.034426
H         4.222908  -12.930226   -2.723044
H         2.727146  -13.699485   -2.201581
H         2.832924  -10.758861   -1.600909
H         4.084683  -11.691880   -0.785234
H         0.921790   -9.988139   -0.735379
H         1.134533   -8.512867    0.208181
H        -1.012381  -10.629745    0.726828
H        -1.287751   -9.054836   -0.057740
H        -0.369672  -10.699684    3.058158
H        -0.143119   -9.207035    3.976683
H         2.064074  -10.274783    3.282306
H         1.857797   -8.638167    2.590243
H        -2.923511   -5.739743   -0.885978
H        -1.279397   -5.103772   -1.030673
H        -2.548997   -4.096335   -0.282319
H        -2.141463   -3.916124    2.108773
H        -1.504494   -5.053953    4.261309
H        -0.862990   -7.428791    4.248233
H         0.450268  -11.791952   -1.451640
H        -1.505862  -12.500614   -1.603502
H        -2.186635  -13.133117   -0.089229
H        -0.457461  -16.748156   -3.887876
H        -2.643548  -17.919798   -3.479018
H        -4.251379  -16.965798   -1.825033
H        -3.685059  -14.876919   -0.612120
H         0.461744  -14.795456   -8.153230
H         0.063820  -14.300081   -5.105247
H        -0.829038  -15.458532   -6.187590
H        -0.649535  -12.671734   -4.004224
H        -2.318431  -12.221019   -3.677593
H         0.429246  -11.408574   -5.935787
H         1.164909  -10.658702   -8.001119
H         1.775251   -9.077478   -7.423285
H         0.456323   -9.122832   -8.605873
H        -1.044662   -8.297930   -4.641357
H        -0.944896   -7.713906   -1.765633
H        -0.347384   -6.697506   -3.101198
H         0.692349   -7.972645   -2.407476
