-1 1
 OpenBabel05192410563D

 92 94  0  0  1  0  0  0  0  0999 V2000
    2.4110   -1.3507   -6.0950 O   0  0  0  0  0  0  0  0  0  0  0  0
    1.7973   -1.8068   -5.1083 C   0  0  0  0  0  0  0  0  0  0  0  0
    2.1419   -1.1371   -3.8532 N   0  0  0  0  0  0  0  0  0  0  0  0
    2.6067   -1.8584   -2.6800 C   0  0  0  0  0  0  0  0  0  0  0  0
    2.6963   -0.9154   -1.4851 C   0  0  0  0  0  0  0  0  0  0  0  0
    3.3012   -1.5465   -0.2344 C   0  0  0  0  0  0  0  0  0  0  0  0
    3.2618   -0.6231    0.9974 C   0  0  0  0  0  0  0  0  0  0  0  0
    2.2340   -1.0567    2.0481 C   0  0  1  0  0  0  0  0  0  0  0  0
    2.5008   -2.0654    2.3957 H   0  0  0  0  0  0  0  0  0  0  0  0
    2.3608   -0.2376    3.3473 C   0  0  0  0  0  0  0  0  0  0  0  0
    1.7232    0.9731    3.4520 N   0  0  0  0  0  0  0  0  0  0  0  0
    0.9730    1.6688    2.4203 C   0  0  0  0  0  0  0  0  0  0  0  0
   -0.5091    1.6953    2.7789 C   0  0  0  0  0  0  0  0  0  0  0  0
   -0.6828    2.3138    4.0876 N   0  0  0  0  0  0  0  0  0  0  0  0
    0.0701    1.6163    5.1176 C   0  0  0  0  0  0  0  0  0  0  0  0
    1.5618    1.5656    4.7668 C   0  0  0  0  0  0  0  0  0  0  0  0
   -1.0051    3.6488    4.1762 C   0  0  0  0  0  0  0  0  0  0  0  0
   -1.3452    4.2697    3.0403 N   0  0  0  0  0  0  0  0  0  0  0  0
   -1.7144    5.5522    3.0486 C   0  0  0  0  0  0  0  0  0  0  0  0
   -2.0720    6.1453    1.7124 C   0  0  0  0  0  0  0  0  0  0  0  0
   -1.7552    6.3097    4.2179 C   0  0  0  0  0  0  0  0  0  0  0  0
   -1.3928    5.6786    5.4105 C   0  0  0  0  0  0  0  0  0  0  0  0
   -1.0131    4.3498    5.4107 C   0  0  0  0  0  0  0  0  0  0  0  0
    3.0310   -0.6828    4.2618 O   0  0  0  0  0  0  0  0  0  0  0  0
    0.8952   -1.1407    1.5147 N   0  0  0  0  0  0  0  0  0  0  0  0
   -0.0017   -2.0381    1.9984 C   0  0  0  0  0  0  0  0  0  0  0  0
   -1.3624   -1.9935    1.3070 C   0  0  0  0  0  0  0  0  0  0  0  0
   -1.7439   -3.2779    0.6171 C   0  0  0  0  0  0  0  0  0  0  0  0
   -0.8928   -3.8837   -0.3080 C   0  0  0  0  0  0  0  0  0  0  0  0
    0.3157   -3.3367   -0.5168 F   0  0  0  0  0  0  0  0  0  0  0  0
   -1.2336   -5.0187   -1.0261 C   0  0  0  0  0  0  0  0  0  0  0  0
   -2.4835   -5.5948   -0.8141 C   0  0  0  0  0  0  0  0  0  0  0  0
   -3.3601   -5.0295    0.1094 C   0  0  0  0  0  0  0  0  0  0  0  0
   -2.9875   -3.8845    0.8120 C   0  0  0  0  0  0  0  0  0  0  0  0
    0.2335   -2.7984    2.9182 O   0  0  0  0  0  0  0  0  0  0  0  0
    0.8048   -2.7896   -5.1158 C   0  0  0  0  0  3  0  0  0  0  0  0
   -0.1306   -3.1651   -4.0563 C   0  0  0  0  0  0  0  0  0  0  0  0
   -1.7177   -2.0867   -3.7340 S   0  0  0  0  0  0  0  0  0  0  0  0
   -1.2179   -1.0496   -2.3273 C   0  0  0  0  0  0  0  0  0  0  0  0
   -1.0568    0.4325   -2.6533 C   0  0  2  0  0  0  0  0  0  0  0  0
   -2.0120    0.8268   -3.0399 H   0  0  0  0  0  0  0  0  0  0  0  0
   -0.0582    0.6526   -3.6745 N   0  0  0  0  0  0  0  0  0  0  0  0
   -0.1113    1.7069   -4.5058 C   0  0  0  0  0  0  0  0  0  0  0  0
    0.8923    1.7200   -5.6345 C   0  0  0  0  0  0  0  0  0  0  0  0
   -0.9184    2.6324   -4.3536 O   0  0  0  0  0  0  0  0  0  0  0  0
   -0.7034    1.2552   -1.4012 C   0  0  0  0  0  0  0  0  0  0  0  0
   -0.8318    2.5787   -1.5682 N   0  0  0  0  0  0  0  0  0  0  0  0
   -0.3942    3.5270   -0.5736 C   0  0  0  0  0  0  0  0  0  0  0  0
   -0.3073    0.7526   -0.3455 O   0  0  0  0  0  0  0  0  0  0  0  0
    2.8618   -0.4753   -4.1420 H   0  0  0  0  0  0  0  0  0  0  0  0
    3.5903   -2.3403   -2.8572 H   0  0  0  0  0  0  0  0  0  0  0  0
    1.9117   -2.6715   -2.4382 H   0  0  0  0  0  0  0  0  0  0  0  0
    1.6873   -0.5312   -1.2633 H   0  0  0  0  0  0  0  0  0  0  0  0
    3.2952   -0.0296   -1.7677 H   0  0  0  0  0  0  0  0  0  0  0  0
    4.3429   -1.8367   -0.4489 H   0  0  0  0  0  0  0  0  0  0  0  0
    2.7658   -2.4826   -0.0057 H   0  0  0  0  0  0  0  0  0  0  0  0
    3.0658    0.4162    0.6808 H   0  0  0  0  0  0  0  0  0  0  0  0
    4.2370   -0.6055    1.5068 H   0  0  0  0  0  0  0  0  0  0  0  0
    1.1169    1.2330    1.4318 H   0  0  0  0  0  0  0  0  0  0  0  0
    1.3404    2.7103    2.3695 H   0  0  0  0  0  0  0  0  0  0  0  0
   -0.8871    0.6618    2.8236 H   0  0  0  0  0  0  0  0  0  0  0  0
   -1.0833    2.2442    2.0307 H   0  0  0  0  0  0  0  0  0  0  0  0
   -0.3100    0.5830    5.1825 H   0  0  0  0  0  0  0  0  0  0  0  0
   -0.0801    2.0749    6.1010 H   0  0  0  0  0  0  0  0  0  0  0  0
    2.1231    0.9560    5.4852 H   0  0  0  0  0  0  0  0  0  0  0  0
    1.9770    2.5900    4.7713 H   0  0  0  0  0  0  0  0  0  0  0  0
   -2.8407    5.5325    1.2190 H   0  0  0  0  0  0  0  0  0  0  0  0
   -1.1908    6.1492    1.0530 H   0  0  0  0  0  0  0  0  0  0  0  0
   -2.4424    7.1751    1.8068 H   0  0  0  0  0  0  0  0  0  0  0  0
   -2.0566    7.3578    4.1967 H   0  0  0  0  0  0  0  0  0  0  0  0
   -1.4092    6.2323    6.3528 H   0  0  0  0  0  0  0  0  0  0  0  0
   -0.7426    3.8662    6.3471 H   0  0  0  0  0  0  0  0  0  0  0  0
    0.6088   -0.5644    0.7231 H   0  0  0  0  0  0  0  0  0  0  0  0
   -1.3902   -1.1592    0.5894 H   0  0  0  0  0  0  0  0  0  0  0  0
   -2.1034   -1.7821    2.0918 H   0  0  0  0  0  0  0  0  0  0  0  0
   -0.5245   -5.4210   -1.7503 H   0  0  0  0  0  0  0  0  0  0  0  0
   -2.7717   -6.4831   -1.3796 H   0  0  0  0  0  0  0  0  0  0  0  0
   -4.3416   -5.4763    0.2803 H   0  0  0  0  0  0  0  0  0  0  0  0
   -3.6791   -3.4389    1.5315 H   0  0  0  0  0  0  0  0  0  0  0  0
    0.5852   -3.1656   -6.1188 H   0  0  0  0  0  0  0  0  0  0  0  0
    0.2724   -3.2315   -3.0370 H   0  0  0  0  0  0  0  0  0  0  0  0
   -0.6087   -4.1316   -4.2721 H   0  0  0  0  0  0  0  0  0  0  0  0
   -0.2835   -1.4502   -1.9078 H   0  0  0  0  0  0  0  0  0  0  0  0
   -1.9797   -1.1485   -1.5406 H   0  0  0  0  0  0  0  0  0  0  0  0
    0.7048   -0.0524   -3.7621 H   0  0  0  0  0  0  0  0  0  0  0  0
    1.3889    0.7531   -5.8105 H   0  0  0  0  0  0  0  0  0  0  0  0
    1.6493    2.4909   -5.4216 H   0  0  0  0  0  0  0  0  0  0  0  0
    0.3633    2.0298   -6.5459 H   0  0  0  0  0  0  0  0  0  0  0  0
   -1.0500    2.8815   -2.5283 H   0  0  0  0  0  0  0  0  0  0  0  0
   -1.0681    3.5705    0.2969 H   0  0  0  0  0  0  0  0  0  0  0  0
   -0.3560    4.5250   -1.0292 H   0  0  0  0  0  0  0  0  0  0  0  0
    0.6104    3.2731   -0.1994 H   0  0  0  0  0  0  0  0  0  0  0  0
  1  2  2  0  0  0  0
  2  3  1  0  0  0  0
  3  4  1  0  0  0  0
  4 52  1  0  0  0  0
  4  5  1  0  0  0  0
  5 53  1  0  0  0  0
  5  6  1  0  0  0  0
  6 56  1  0  0  0  0
  6  7  1  0  0  0  0
  7 58  1  0  0  0  0
  7  8  1  0  0  0  0
  8  9  1  1  0  0  0
  8 10  1  0  0  0  0
 10 11  1  0  0  0  0
 10 24  2  0  0  0  0
 11 16  1  0  0  0  0
 12 13  1  0  0  0  0
 12 11  1  0  0  0  0
 13 61  1  0  0  0  0
 13 14  1  0  0  0  0
 14 17  1  0  0  0  0
 14 15  1  0  0  0  0
 15 63  1  0  0  0  0
 15 64  1  0  0  0  0
 16 66  1  0  0  0  0
 16 15  1  0  0  0  0
 16 65  1  0  0  0  0
 17 23  1  0  0  0  0
 18 19  1  0  0  0  0
 18 17  2  0  0  0  0
 19 21  2  0  0  0  0
 20 69  1  0  0  0  0
 20 19  1  0  0  0  0
 21 22  1  0  0  0  0
 22 23  2  0  0  0  0
 22 71  1  0  0  0  0
 23 72  1  0  0  0  0
 25 26  1  0  0  0  0
 25  8  1  0  0  0  0
 26 35  2  0  0  0  0
 27 26  1  0  0  0  0
 27 75  1  0  0  0  0
 28 34  1  0  0  0  0
 28 27  1  0  0  0  0
 29 28  2  0  0  0  0
 30 29  1  0  0  0  0
 31 32  2  0  0  0  0
 31 29  1  0  0  0  0
 32 33  1  0  0  0  0
 33 78  1  0  0  0  0
 33 34  2  0  0  0  0
 34 79  1  0  0  0  0
 36  2  1  0  0  0  0
 36 37  1  0  0  0  0
 37 38  1  0  0  0  0
 37 81  1  0  0  0  0
 38 39  1  0  0  0  0
 39 83  1  0  0  0  0
 39 84  1  0  0  0  0
 40 41  1  6  0  0  0
 40 39  1  0  0  0  0
 40 46  1  0  0  0  0
 42 40  1  0  0  0  0
 43 45  2  0  0  0  0
 43 42  1  0  0  0  0
 44 87  1  0  0  0  0
 44 43  1  0  0  0  0
 46 49  2  0  0  0  0
 47 46  1  0  0  0  0
 47 48  1  0  0  0  0
 48 92  1  0  0  0  0
 48 90  1  0  0  0  0
 50  3  1  0  0  0  0
 51  4  1  0  0  0  0
 54  5  1  0  0  0  0
 55  6  1  0  0  0  0
 57  7  1  0  0  0  0
 59 12  1  0  0  0  0
 60 12  1  0  0  0  0
 62 13  1  0  0  0  0
 67 20  1  0  0  0  0
 68 20  1  0  0  0  0
 70 21  1  0  0  0  0
 73 25  1  0  0  0  0
 74 27  1  0  0  0  0
 76 31  1  0  0  0  0
 77 32  1  0  0  0  0
 80 36  1  0  0  0  0
 82 37  1  0  0  0  0
 85 42  1  0  0  0  0
 86 44  1  0  0  0  0
 88 44  1  0  0  0  0
 89 47  1  0  0  0  0
 91 48  1  0  0  0  0
M  END
