92
-1 1
O         3.054205   -0.372758   -6.385804
C         2.947742   -1.191506   -5.480129
N         2.684056   -0.810520   -4.206716
C         2.592664   -1.602272   -2.991742
C         2.801458   -0.703048   -1.781140
C         2.658771   -1.443378   -0.457301
C         2.747272   -0.513341    0.757111
C         1.957219   -1.037724    1.962753
H         2.319777   -2.042609    2.228540
C         2.248740   -0.234402    3.243057
N         1.597133    0.955801    3.449424
C         0.736877    1.670197    2.520076
C        -0.679217    1.754119    3.076829
N        -0.653402    2.390601    4.389189
C         0.201504    1.662801    5.315091
C         1.630623    1.553402    4.770773
C        -0.830886    3.754028    4.474404
N        -1.227331    4.384557    3.363220
C        -1.461878    5.697723    3.370462
C        -1.899926    6.293180    2.059344
C        -1.299489    6.477863    4.514271
C        -0.878811    5.834831    5.681573
C        -0.637552    4.473803    5.682216
O         3.050146   -0.669296    4.050554
N         0.557497   -1.132958    1.627778
C        -0.292191   -1.982837    2.250196
C        -1.704065   -1.962978    1.663904
C        -2.154271   -3.259602    1.038043
C        -1.356313   -3.945113    0.119472
F        -0.112661   -3.509051   -0.101704
C        -1.793927   -5.062611   -0.575553
C        -3.074975   -5.548305   -0.329221
C        -3.893148   -4.911366    0.602429
C        -3.432071   -3.778040    1.269706
O         0.013526   -2.675925    3.202619
C         3.099726   -2.650739   -5.777467
C         2.242399   -3.594036   -5.381866
S        -0.993576   -2.499382   -3.576474
C        -0.994545   -1.331529   -2.175433
C        -1.091543    0.150501   -2.591305
H        -2.143045    0.391491   -2.838187
N        -0.281174    0.357261   -3.786066
C        -0.517422    1.343302   -4.683684
C         0.010446    1.087916   -6.075148
O        -1.121046    2.381092   -4.404807
C        -0.690850    1.087672   -1.438064
N        -0.764265    2.397570   -1.699574
C        -0.388289    3.384946   -0.719827
O        -0.350668    0.673595   -0.325304
H         2.448806    0.172609   -4.120300
H         3.358061   -2.393680   -3.019927
H         1.607555   -2.099109   -2.924315
H         2.039424    0.096449   -1.812136
H         3.786551   -0.206895   -1.847577
H         3.419719   -2.237938   -0.376874
H         1.687242   -1.959716   -0.451820
H         2.357474    0.479751    0.478624
H         3.794361   -0.363458    1.063460
H         0.718434    1.221047    1.527568
H         1.127662    2.698216    2.404227
H        -1.085081    0.736342    3.189240
H        -1.328097    2.324291    2.407443
H        -0.208949    0.646695    5.434362
H         0.199948    2.128866    6.307016
H         2.258814    0.923573    5.412360
H         2.081993    2.561790    4.718818
H        -2.801110    5.778884    1.694000
H        -1.116853    6.146994    1.299936
H        -2.111848    7.367655    2.145287
H        -1.491437    7.551533    4.493061
H        -0.739254    6.405254    6.603535
H        -0.320811    3.979959    6.598814
H         0.217479   -0.629398    0.805112
H        -1.784080   -1.157113    0.915850
H        -2.385235   -1.716743    2.491821
H        -1.130556   -5.513049   -1.313820
H        -3.435136   -6.422297   -0.875849
H        -4.898202   -5.288990    0.802158
H        -4.080397   -3.267942    1.987115
H         3.903620   -2.873503   -6.486531
H         1.381804   -3.373056   -4.734412
H         2.353769   -4.623287   -5.735661
H        -0.080067   -1.454441   -1.577035
H        -1.833823   -1.539327   -1.493253
H        -0.068850   -0.579029   -4.186668
H         1.095265    0.898721   -6.086454
H        -0.221081    1.953670   -6.706139
H        -0.470946    0.187730   -6.487854
H        -1.012003    2.655610   -2.666886
H        -1.035352    3.350290    0.171795
H        -0.467909    4.382566   -1.170521
H         0.648358    3.235985   -0.375326
