-1 1
 OpenBabel05232414493D

 90 92  0  0  1  0  0  0  0  0999 V2000
    3.0534  -11.0384    4.7268 O   0  0  0  0  0  0  0  0  0  0  0  0
    3.6997   -9.9948    4.8786 C   0  0  0  0  0  0  0  0  0  0  0  0
    3.4599   -9.2676    6.0586 N   0  0  0  0  0  0  0  0  0  0  0  0
    3.3985   -7.8237    6.1817 C   0  0  0  0  0  0  0  0  0  0  0  0
    4.3355   -7.2574    7.2482 C   0  0  0  0  0  0  0  0  0  0  0  0
    4.1130   -7.8473    8.6353 C   0  0  0  0  0  0  0  0  0  0  0  0
    5.1928   -7.4435    9.6287 C   0  0  0  0  0  0  0  0  0  0  0  0
    4.9733   -8.0260   11.0350 C   0  0  1  0  0  0  0  0  0  0  0  0
    4.6816   -9.0834   10.9546 H   0  0  0  0  0  0  0  0  0  0  0  0
    6.2476   -7.8760   11.8686 C   0  0  0  0  0  0  0  0  0  0  0  0
    7.2812   -8.7294   11.6069 N   0  0  0  0  0  0  0  0  0  0  0  0
    7.2636   -9.8667   10.7065 C   0  0  0  0  0  0  0  0  0  0  0  0
    8.4242   -9.7810    9.7235 C   0  0  0  0  0  0  0  0  0  0  0  0
    9.6949   -9.6120   10.4204 N   0  0  0  0  0  0  0  0  0  0  0  0
    9.7023   -8.4843   11.3364 C   0  0  0  0  0  0  0  0  0  0  0  0
    8.5357   -8.5764   12.3126 C   0  0  0  0  0  0  0  0  0  0  0  0
   10.8741  -10.0324    9.8363 C   0  0  0  0  0  0  0  0  0  0  0  0
   10.9410  -11.2417    9.0950 C   0  0  0  0  0  0  0  0  0  0  0  0
   12.0540  -11.7139    8.5694 N   0  0  0  0  0  0  0  0  0  0  0  0
   13.1662  -11.0302    8.7281 C   0  0  0  0  0  0  0  0  0  0  0  0
   14.3952  -11.6156    8.1379 N   0  0  0  0  0  0  0  0  0  0  0  0
   15.4226  -10.9821    8.2903 O   0  0  0  0  0  0  0  0  0  0  0  0
   14.3026  -12.6663    7.5569 O   0  0  0  0  0  0  0  0  0  0  0  0
   13.2509   -9.8252    9.4114 C   0  0  0  0  0  0  0  0  0  0  0  0
   12.0831   -9.3212    9.9678 C   0  0  0  0  0  0  0  0  0  0  0  0
    6.3394   -6.9829   12.6957 O   0  0  0  0  0  0  0  0  0  0  0  0
    3.8967   -7.3656   11.7311 N   0  0  0  0  0  0  0  0  0  0  0  0
    2.8262   -8.0932   12.1999 C   0  0  0  0  0  0  0  0  0  0  0  0
    1.9828   -7.3384   12.9955 N   0  0  0  0  0  0  0  0  0  0  0  0
    0.8125   -7.7395   13.6513 C   0  0  0  0  0  0  0  0  0  0  0  0
    0.2963   -9.0426   13.5907 C   0  0  0  0  0  0  0  0  0  0  0  0
   -0.8738   -9.3508   14.2815 C   0  0  0  0  0  0  0  0  0  0  0  0
   -1.5488   -8.3914   15.0339 C   0  0  0  0  0  0  0  0  0  0  0  0
   -1.0355   -7.0965   15.0912 C   0  0  0  0  0  0  0  0  0  0  0  0
    0.1324   -6.7728   14.4094 C   0  0  0  0  0  0  0  0  0  0  0  0
    2.6389   -9.2606   11.9194 O   0  0  0  0  0  0  0  0  0  0  0  0
    4.6811   -9.5386    3.9253 C   0  0  0  0  0  3  0  0  0  0  0  0
    5.6772   -8.5679    4.1264 C   0  0  0  0  0  0  0  0  0  0  0  0
    5.2566   -6.4844    3.4148 S   0  0  0  0  0  0  0  0  0  0  0  0
    4.3589   -6.9548    1.9148 C   0  0  0  0  0  0  0  0  0  0  0  0
    2.9906   -6.2877    1.7531 C   0  0  2  0  0  0  0  0  0  0  0  0
    2.5902   -6.5464    0.7580 H   0  0  0  0  0  0  0  0  0  0  0  0
    3.1046   -4.8529    1.7680 N   0  0  0  0  0  0  0  0  0  0  0  0
    2.3834   -4.0516    0.9421 C   0  0  0  0  0  0  0  0  0  0  0  0
    2.3619   -2.5902    1.3534 C   0  0  0  0  0  0  0  0  0  0  0  0
    1.7955   -4.4522   -0.0458 O   0  0  0  0  0  0  0  0  0  0  0  0
    1.8822   -6.7176    2.7409 C   0  0  0  0  0  0  0  0  0  0  0  0
    1.8825   -8.0171    3.1160 N   0  0  0  0  0  0  0  0  0  0  0  0
    0.8342   -8.5433    3.9575 C   0  0  0  0  0  0  0  0  0  0  0  0
    1.0048   -5.9375    3.0717 O   0  0  0  0  0  0  0  0  0  0  0  0
    2.7554   -9.7684    6.5888 H   0  0  0  0  0  0  0  0  0  0  0  0
    2.3634   -7.5183    6.4226 H   0  0  0  0  0  0  0  0  0  0  0  0
    3.6396   -7.3547    5.2171 H   0  0  0  0  0  0  0  0  0  0  0  0
    4.2210   -6.1601    7.2760 H   0  0  0  0  0  0  0  0  0  0  0  0
    5.3780   -7.4494    6.9410 H   0  0  0  0  0  0  0  0  0  0  0  0
    4.1015   -8.9478    8.5495 H   0  0  0  0  0  0  0  0  0  0  0  0
    3.1228   -7.5542    9.0248 H   0  0  0  0  0  0  0  0  0  0  0  0
    5.2537   -6.3453    9.7185 H   0  0  0  0  0  0  0  0  0  0  0  0
    6.1741   -7.7661    9.2422 H   0  0  0  0  0  0  0  0  0  0  0  0
    6.3242   -9.9155   10.1466 H   0  0  0  0  0  0  0  0  0  0  0  0
    7.3504  -10.7976   11.2953 H   0  0  0  0  0  0  0  0  0  0  0  0
    8.2568   -8.9282    9.0361 H   0  0  0  0  0  0  0  0  0  0  0  0
    8.4371  -10.6899    9.1129 H   0  0  0  0  0  0  0  0  0  0  0  0
    9.6562   -7.5211   10.7887 H   0  0  0  0  0  0  0  0  0  0  0  0
   10.6318   -8.4971   11.9209 H   0  0  0  0  0  0  0  0  0  0  0  0
    8.4725   -7.6711   12.9274 H   0  0  0  0  0  0  0  0  0  0  0  0
    8.6903   -9.4435   12.9799 H   0  0  0  0  0  0  0  0  0  0  0  0
   10.0468  -11.8533    8.9493 H   0  0  0  0  0  0  0  0  0  0  0  0
   14.2019   -9.3009    9.4881 H   0  0  0  0  0  0  0  0  0  0  0  0
   12.1175   -8.3633   10.4850 H   0  0  0  0  0  0  0  0  0  0  0  0
    4.2152   -6.5680   12.2747 H   0  0  0  0  0  0  0  0  0  0  0  0
    2.1991   -6.3534   13.0695 H   0  0  0  0  0  0  0  0  0  0  0  0
    0.8156   -9.7918   12.9977 H   0  0  0  0  0  0  0  0  0  0  0  0
   -1.2644  -10.3694   14.2217 H   0  0  0  0  0  0  0  0  0  0  0  0
   -2.4662   -8.6481   15.5672 H   0  0  0  0  0  0  0  0  0  0  0  0
   -1.5472   -6.3255   15.6720 H   0  0  0  0  0  0  0  0  0  0  0  0
    0.5263   -5.7536   14.4627 H   0  0  0  0  0  0  0  0  0  0  0  0
    4.7251  -10.1662    3.0314 H   0  0  0  0  0  0  0  0  0  0  0  0
    6.5763   -8.6597    3.5128 H   0  0  0  0  0  0  0  0  0  0  0  0
    5.9035   -8.2559    5.1494 H   0  0  0  0  0  0  0  0  0  0  0  0
    4.2401   -8.0546    1.9275 H   0  0  0  0  0  0  0  0  0  0  0  0
    4.9583   -6.7103    1.0252 H   0  0  0  0  0  0  0  0  0  0  0  0
    3.4868   -4.4652    2.6235 H   0  0  0  0  0  0  0  0  0  0  0  0
    3.3222   -2.2627    1.7779 H   0  0  0  0  0  0  0  0  0  0  0  0
    1.5830   -2.4592    2.1203 H   0  0  0  0  0  0  0  0  0  0  0  0
    2.1080   -1.9757    0.4814 H   0  0  0  0  0  0  0  0  0  0  0  0
    2.7408   -8.5610    3.0399 H   0  0  0  0  0  0  0  0  0  0  0  0
    1.0928   -9.5746    4.2304 H   0  0  0  0  0  0  0  0  0  0  0  0
   -0.1329   -8.5317    3.4295 H   0  0  0  0  0  0  0  0  0  0  0  0
    0.7126   -7.9400    4.8721 H   0  0  0  0  0  0  0  0  0  0  0  0
  1  2  2  0  0  0  0
  2  3  1  0  0  0  0
  3  4  1  0  0  0  0
  3 51  1  0  0  0  0
  4 52  1  0  0  0  0
  4  5  1  0  0  0  0
  5 54  1  0  0  0  0
  5  6  1  0  0  0  0
  6 57  1  0  0  0  0
  6  7  1  0  0  0  0
  7 58  1  0  0  0  0
  7  8  1  0  0  0  0
  8  9  1  6  0  0  0
  8 27  1  0  0  0  0
  8 10  1  0  0  0  0
 10 26  2  0  0  0  0
 11 10  1  0  0  0  0
 11 16  1  0  0  0  0
 12 61  1  0  0  0  0
 12 11  1  0  0  0  0
 13 14  1  0  0  0  0
 13 12  1  0  0  0  0
 14 15  1  0  0  0  0
 15 65  1  0  0  0  0
 15 16  1  0  0  0  0
 16 66  1  0  0  0  0
 16 67  1  0  0  0  0
 17 25  1  0  0  0  0
 17 14  1  0  0  0  0
 18 17  2  0  0  0  0
 19 20  2  0  0  0  0
 19 18  1  0  0  0  0
 20 24  1  0  0  0  0
 21 22  2  0  0  0  0
 21 20  1  0  0  0  0
 23 21  2  0  0  0  0
 24 69  1  0  0  0  0
 24 25  2  0  0  0  0
 25 70  1  0  0  0  0
 27 28  1  0  0  0  0
 27 71  1  0  0  0  0
 28 29  1  0  0  0  0
 29 72  1  0  0  0  0
 29 30  1  0  0  0  0
 30 35  1  0  0  0  0
 31 30  2  0  0  0  0
 31 32  1  0  0  0  0
 32 33  2  0  0  0  0
 33 34  1  0  0  0  0
 33 75  1  0  0  0  0
 34 76  1  0  0  0  0
 35 77  1  0  0  0  0
 35 34  2  0  0  0  0
 36 28  2  0  0  0  0
 37 38  1  0  0  0  0
 37  2  1  0  0  0  0
 38 80  1  0  0  0  0
 39 38  1  0  0  0  0
 40 81  1  0  0  0  0
 40 39  1  0  0  0  0
 41 42  1  6  0  0  0
 41 43  1  0  0  0  0
 41 40  1  0  0  0  0
 41 47  1  0  0  0  0
 43 83  1  0  0  0  0
 44 45  1  0  0  0  0
 44 43  1  0  0  0  0
 45 84  1  0  0  0  0
 45 85  1  0  0  0  0
 46 44  2  0  0  0  0
 47 50  2  0  0  0  0
 47 48  1  0  0  0  0
 48 49  1  0  0  0  0
 49 88  1  0  0  0  0
 49 90  1  0  0  0  0
 53  4  1  0  0  0  0
 55  5  1  0  0  0  0
 56  6  1  0  0  0  0
 59  7  1  0  0  0  0
 60 12  1  0  0  0  0
 62 13  1  0  0  0  0
 63 13  1  0  0  0  0
 64 15  1  0  0  0  0
 68 18  1  0  0  0  0
 73 31  1  0  0  0  0
 74 32  1  0  0  0  0
 78 37  1  0  0  0  0
 79 38  1  0  0  0  0
 82 40  1  0  0  0  0
 86 45  1  0  0  0  0
 87 48  1  0  0  0  0
 89 49  1  0  0  0  0
M  END
