-1 1
 OpenBabel05232413493D

 90 91  0  0  1  0  0  0  0  0999 V2000
   -2.8395   -3.1603   -3.3284 O   0  0  0  0  0  0  0  0  0  0  0  0
   -2.1449   -2.1497   -3.3279 C   0  0  0  0  0  0  0  0  0  0  0  0
   -2.1628   -1.2952   -2.2629 N   0  0  0  0  0  0  0  0  0  0  0  0
   -1.8214    0.1188   -2.2259 C   0  0  0  0  0  0  0  0  0  0  0  0
   -0.7145    0.4644   -1.2404 C   0  0  0  0  0  0  0  0  0  0  0  0
   -1.0434    0.1490    0.2145 C   0  0  0  0  0  0  0  0  0  0  0  0
    0.0807    0.5419    1.1632 C   0  0  0  0  0  0  0  0  0  0  0  0
   -0.2151    0.2175    2.6370 C   0  0  1  0  0  0  0  0  0  0  0  0
   -0.4720   -0.8470    2.7388 H   0  0  0  0  0  0  0  0  0  0  0  0
    0.9984    0.5790    3.4976 C   0  0  0  0  0  0  0  0  0  0  0  0
    2.0722   -0.2660    3.4784 N   0  0  0  0  0  0  0  0  0  0  0  0
    2.1448   -1.5671    2.8447 C   0  0  0  0  0  0  0  0  0  0  0  0
    3.3540   -1.6372    1.9209 C   0  0  0  0  0  0  0  0  0  0  0  0
    4.5771   -1.2688    2.6256 N   0  0  0  0  0  0  0  0  0  0  0  0
    4.4948    0.0262    3.2804 C   0  0  0  0  0  0  0  0  0  0  0  0
    3.2781    0.0887    4.1966 C   0  0  0  0  0  0  0  0  0  0  0  0
    5.7997   -1.7489    2.1978 C   0  0  0  0  0  0  0  0  0  0  0  0
    5.9475   -3.0839    1.7379 C   0  0  0  0  0  0  0  0  0  0  0  0
    7.1008   -3.6057    1.3694 N   0  0  0  0  0  0  0  0  0  0  0  0
    8.1782   -2.8534    1.4223 C   0  0  0  0  0  0  0  0  0  0  0  0
    9.4541   -3.4933    1.0173 N   0  0  0  0  0  0  0  0  0  0  0  0
   10.4512   -2.7997    1.0818 O   0  0  0  0  0  0  0  0  0  0  0  0
    9.4248   -4.6424    0.6578 O   0  0  0  0  0  0  0  0  0  0  0  0
    8.1856   -1.5286    1.8369 C   0  0  0  0  0  0  0  0  0  0  0  0
    6.9744   -0.9717    2.2247 C   0  0  0  0  0  0  0  0  0  0  0  0
    1.0132    1.6248    4.1256 O   0  0  0  0  0  0  0  0  0  0  0  0
   -1.3528    0.9490    3.1336 N   0  0  0  0  0  0  0  0  0  0  0  0
   -2.4420    0.2788    3.6400 C   0  0  0  0  0  0  0  0  0  0  0  0
   -3.3796    1.1329    4.1908 N   0  0  0  0  0  0  0  0  0  0  0  0
   -4.5899    0.8108    4.8172 C   0  0  0  0  0  0  0  0  0  0  0  0
   -5.0331   -0.5047    5.0195 C   0  0  0  0  0  0  0  0  0  0  0  0
   -6.2490   -0.7288    5.6622 C   0  0  0  0  0  0  0  0  0  0  0  0
   -7.0405    0.3271    6.1099 C   0  0  0  0  0  0  0  0  0  0  0  0
   -6.5994    1.6337    5.9055 C   0  0  0  0  0  0  0  0  0  0  0  0
   -5.3877    1.8747    5.2675 C   0  0  0  0  0  0  0  0  0  0  0  0
   -2.5654   -0.9296    3.5834 O   0  0  0  0  0  0  0  0  0  0  0  0
   -1.2598   -1.8638   -4.4929 C   0  0  0  0  0  0  0  0  0  0  0  0
   -0.0630   -1.2712   -4.4631 C   0  0  0  0  0  0  0  0  0  0  0  0
   -0.2374    2.0065   -4.8488 S   0  0  0  0  0  1  0  0  0  0  0  0
   -1.5802    1.5598   -6.0000 C   0  0  0  0  0  0  0  0  0  0  0  0
   -2.9344    2.2477   -5.7084 C   0  0  2  0  0  0  0  0  0  0  0  0
   -3.5900    2.1499   -6.5920 H   0  0  0  0  0  0  0  0  0  0  0  0
   -2.7249    3.6434   -5.4732 N   0  0  0  0  0  0  0  0  0  0  0  0
   -3.6851    4.5742   -5.6537 C   0  0  0  0  0  0  0  0  0  0  0  0
   -3.3422    5.9476   -5.1021 C   0  0  0  0  0  0  0  0  0  0  0  0
   -4.7525    4.3509   -6.2038 O   0  0  0  0  0  0  0  0  0  0  0  0
   -3.7323    1.6244   -4.5448 C   0  0  0  0  0  0  0  0  0  0  0  0
   -4.0541    0.3100   -4.7231 N   0  0  0  0  0  0  0  0  0  0  0  0
   -4.9568   -0.3960   -3.8493 C   0  0  0  0  0  0  0  0  0  0  0  0
   -4.0922    2.2531   -3.5680 O   0  0  0  0  0  0  0  0  0  0  0  0
   -2.8094   -1.6261   -1.5542 H   0  0  0  0  0  0  0  0  0  0  0  0
   -2.7266    0.7001   -1.9829 H   0  0  0  0  0  0  0  0  0  0  0  0
   -1.5046    0.4668   -3.2205 H   0  0  0  0  0  0  0  0  0  0  0  0
   -0.4987    1.5387   -1.3608 H   0  0  0  0  0  0  0  0  0  0  0  0
    0.2097   -0.0661   -1.5309 H   0  0  0  0  0  0  0  0  0  0  0  0
   -1.2508   -0.9301    0.3271 H   0  0  0  0  0  0  0  0  0  0  0  0
   -1.9672    0.6743    0.5105 H   0  0  0  0  0  0  0  0  0  0  0  0
    0.2854    1.6233    1.0802 H   0  0  0  0  0  0  0  0  0  0  0  0
    1.0118    0.0363    0.8561 H   0  0  0  0  0  0  0  0  0  0  0  0
    1.2381   -1.7766    2.2682 H   0  0  0  0  0  0  0  0  0  0  0  0
    2.2337   -2.3468    3.6227 H   0  0  0  0  0  0  0  0  0  0  0  0
    3.1951   -0.9541    1.0629 H   0  0  0  0  0  0  0  0  0  0  0  0
    3.4337   -2.6525    1.5184 H   0  0  0  0  0  0  0  0  0  0  0  0
    4.4468    0.8492    2.5389 H   0  0  0  0  0  0  0  0  0  0  0  0
    5.3898    0.1783    3.8981 H   0  0  0  0  0  0  0  0  0  0  0  0
    3.1490    1.0994    4.6007 H   0  0  0  0  0  0  0  0  0  0  0  0
    3.4236   -0.6103    5.0399 H   0  0  0  0  0  0  0  0  0  0  0  0
    5.0845   -3.7536    1.6942 H   0  0  0  0  0  0  0  0  0  0  0  0
    9.1118   -0.9565    1.8392 H   0  0  0  0  0  0  0  0  0  0  0  0
    6.9485    0.0745    2.5264 H   0  0  0  0  0  0  0  0  0  0  0  0
   -1.1105    1.8580    3.5168 H   0  0  0  0  0  0  0  0  0  0  0  0
   -3.2147    2.1221    4.0602 H   0  0  0  0  0  0  0  0  0  0  0  0
   -4.4233   -1.3308    4.6618 H   0  0  0  0  0  0  0  0  0  0  0  0
   -6.5820   -1.7590    5.8090 H   0  0  0  0  0  0  0  0  0  0  0  0
   -7.9926    0.1352    6.6086 H   0  0  0  0  0  0  0  0  0  0  0  0
   -7.2035    2.4790    6.2432 H   0  0  0  0  0  0  0  0  0  0  0  0
   -5.0527    2.9043    5.1117 H   0  0  0  0  0  0  0  0  0  0  0  0
   -1.6398   -2.2960   -5.4235 H   0  0  0  0  0  0  0  0  0  0  0  0
    0.5365   -1.1594   -5.3681 H   0  0  0  0  0  0  0  0  0  0  0  0
    0.3735   -0.8681   -3.5492 H   0  0  0  0  0  0  0  0  0  0  0  0
   -1.7342    0.4656   -5.9991 H   0  0  0  0  0  0  0  0  0  0  0  0
   -1.2979    1.8344   -7.0295 H   0  0  0  0  0  0  0  0  0  0  0  0
   -1.8629    3.8318   -4.9560 H   0  0  0  0  0  0  0  0  0  0  0  0
   -2.2618    6.1503   -5.1197 H   0  0  0  0  0  0  0  0  0  0  0  0
   -3.6849    5.9945   -4.0570 H   0  0  0  0  0  0  0  0  0  0  0  0
   -3.8797    6.7103   -5.6796 H   0  0  0  0  0  0  0  0  0  0  0  0
   -3.7258   -0.1529   -5.5591 H   0  0  0  0  0  0  0  0  0  0  0  0
   -4.6821   -1.4584   -3.7888 H   0  0  0  0  0  0  0  0  0  0  0  0
   -6.0064   -0.3149   -4.1848 H   0  0  0  0  0  0  0  0  0  0  0  0
   -4.8942    0.0502   -2.8482 H   0  0  0  0  0  0  0  0  0  0  0  0
  1  2  2  0  0  0  0
  2  3  1  0  0  0  0
  3  4  1  0  0  0  0
  3 51  1  0  0  0  0
  4 52  1  0  0  0  0
  4  5  1  0  0  0  0
  5  6  1  0  0  0  0
  6 56  1  0  0  0  0
  6 57  1  0  0  0  0
  6  7  1  0  0  0  0
  7  8  1  0  0  0  0
  8  9  1  1  0  0  0
  8 27  1  0  0  0  0
  8 10  1  0  0  0  0
 10 26  2  0  0  0  0
 11 10  1  0  0  0  0
 11 16  1  0  0  0  0
 12 11  1  0  0  0  0
 12 61  1  0  0  0  0
 13 14  1  0  0  0  0
 13 12  1  0  0  0  0
 14 15  1  0  0  0  0
 15 65  1  0  0  0  0
 15 16  1  0  0  0  0
 16 66  1  0  0  0  0
 16 67  1  0  0  0  0
 17 25  1  0  0  0  0
 17 14  1  0  0  0  0
 18 17  2  0  0  0  0
 19 20  2  0  0  0  0
 19 18  1  0  0  0  0
 20 24  1  0  0  0  0
 21 22  2  0  0  0  0
 21 20  1  0  0  0  0
 23 21  2  0  0  0  0
 24 69  1  0  0  0  0
 24 25  2  0  0  0  0
 25 70  1  0  0  0  0
 27 71  1  0  0  0  0
 27 28  1  0  0  0  0
 28 29  1  0  0  0  0
 29 30  1  0  0  0  0
 30 31  2  0  0  0  0
 30 35  1  0  0  0  0
 31 32  1  0  0  0  0
 32 74  1  0  0  0  0
 32 33  2  0  0  0  0
 33 75  1  0  0  0  0
 34 33  1  0  0  0  0
 34 76  1  0  0  0  0
 35 34  2  0  0  0  0
 36 28  2  0  0  0  0
 37 38  2  0  0  0  0
 37  2  1  0  0  0  0
 38 80  1  0  0  0  0
 40 81  1  0  0  0  0
 40 41  1  0  0  0  0
 40 39  1  0  0  0  0
 41 42  1  6  0  0  0
 41 43  1  0  0  0  0
 41 47  1  0  0  0  0
 43 83  1  0  0  0  0
 44 43  1  0  0  0  0
 44 45  1  0  0  0  0
 45 85  1  0  0  0  0
 46 44  2  0  0  0  0
 47 50  2  0  0  0  0
 48 47  1  0  0  0  0
 48 49  1  0  0  0  0
 49 88  1  0  0  0  0
 49 90  1  0  0  0  0
 53  4  1  0  0  0  0
 54  5  1  0  0  0  0
 55  5  1  0  0  0  0
 58  7  1  0  0  0  0
 59  7  1  0  0  0  0
 60 12  1  0  0  0  0
 62 13  1  0  0  0  0
 63 13  1  0  0  0  0
 64 15  1  0  0  0  0
 68 18  1  0  0  0  0
 72 29  1  0  0  0  0
 73 31  1  0  0  0  0
 77 35  1  0  0  0  0
 78 37  1  0  0  0  0
 79 38  1  0  0  0  0
 82 40  1  0  0  0  0
 84 45  1  0  0  0  0
 86 45  1  0  0  0  0
 87 48  1  0  0  0  0
 89 49  1  0  0  0  0
M  END
