-1 1
 OpenBabel05232414493D

 91 92  0  0  1  0  0  0  0  0999 V2000
    1.0134  -12.2100   -2.1330 O   0  0  0  0  0  0  0  0  0  0  0  0
    1.9103  -12.2920   -3.0060 C   0  0  0  0  0  0  0  0  0  0  0  0
    1.5226  -12.3705   -4.3311 N   0  0  0  0  0  0  0  0  0  0  0  0
    0.2530  -11.8163   -4.7648 C   0  0  0  0  0  0  0  0  0  0  0  0
   -0.9840  -12.6297   -4.3815 C   0  0  0  0  0  0  0  0  0  0  0  0
   -2.2844  -11.8223   -4.4628 C   0  0  0  0  0  0  0  0  0  0  0  0
   -2.3054  -10.5346   -3.6269 C   0  0  0  0  0  0  0  0  0  0  0  0
   -1.8516  -10.7219   -2.1742 C   0  0  1  0  0  0  0  0  0  0  0  0
   -0.8393  -11.1348   -2.1967 H   0  0  0  0  0  0  0  0  0  0  0  0
   -1.8696   -9.3715   -1.4310 C   0  0  0  0  0  0  0  0  0  0  0  0
   -0.7263   -8.6227   -1.4246 N   0  0  0  0  0  0  0  0  0  0  0  0
   -0.6196   -7.4965   -0.5027 C   0  0  0  0  0  0  0  0  0  0  0  0
    0.2793   -7.8802    0.6812 C   0  0  0  0  0  0  0  0  0  0  0  0
    1.5668   -8.3846    0.2252 N   0  0  0  0  0  0  0  0  0  0  0  0
    1.4144   -9.5185   -0.6711 C   0  0  0  0  0  0  0  0  0  0  0  0
    0.5792   -9.0889   -1.8738 C   0  0  0  0  0  0  0  0  0  0  0  0
    2.6338   -7.5154    0.0968 C   0  0  0  0  0  0  0  0  0  0  0  0
    2.5068   -6.3123    0.6644 N   0  0  0  0  0  0  0  0  0  0  0  0
    3.5049   -5.4276    0.6010 C   0  0  0  0  0  0  0  0  0  0  0  0
    3.2514   -4.1042    1.2743 C   0  0  0  0  0  0  0  0  0  0  0  0
    4.7027   -5.6980   -0.0551 C   0  0  0  0  0  0  0  0  0  0  0  0
    4.8446   -6.9524   -0.6569 C   0  0  0  0  0  0  0  0  0  0  0  0
    3.8226   -7.8785   -0.5859 C   0  0  0  0  0  0  0  0  0  0  0  0
   -2.9004   -9.0019   -0.8919 O   0  0  0  0  0  0  0  0  0  0  0  0
   -2.7097  -11.6656   -1.4902 N   0  0  0  0  0  0  0  0  0  0  0  0
   -2.3604  -12.3385   -0.3276 C   0  0  0  0  0  0  0  0  0  0  0  0
   -1.0174  -12.5949   -0.1753 N   0  0  0  0  0  0  0  0  0  0  0  0
   -0.3933  -13.1680    0.9424 C   0  0  0  0  0  0  0  0  0  0  0  0
   -1.0672  -13.5662    2.1071 C   0  0  0  0  0  0  0  0  0  0  0  0
   -0.3535  -14.1051    3.1776 C   0  0  0  0  0  0  0  0  0  0  0  0
    1.0222  -14.2507    3.0903 C   0  0  0  0  0  0  0  0  0  0  0  0
    1.7011  -14.7732    4.1261 F   0  0  0  0  0  0  0  0  0  0  0  0
    1.7096  -13.8666    1.9461 C   0  0  0  0  0  0  0  0  0  0  0  0
    1.0027  -13.3267    0.8781 C   0  0  0  0  0  0  0  0  0  0  0  0
   -3.2201  -12.6816    0.4657 O   0  0  0  0  0  0  0  0  0  0  0  0
    3.2980  -12.3118   -2.6547 C   0  0  0  0  0  3  0  0  0  0  0  0
    4.3897  -12.1419   -3.5086 C   0  0  0  0  0  3  0  0  0  0  0  0
    5.0387   -9.9487   -3.7387 S   0  0  0  0  0  1  0  0  0  0  0  0
    3.3671   -9.2962   -3.9346 C   0  0  0  0  0  0  0  0  0  0  0  0
    2.8809   -8.9152   -5.3547 C   0  0  2  0  0  0  0  0  0  0  0  0
    3.5089   -8.0777   -5.7057 H   0  0  0  0  0  0  0  0  0  0  0  0
    1.4959   -8.5006   -5.3266 N   0  0  0  0  0  0  0  0  0  0  0  0
    1.0569   -7.3499   -4.7633 C   0  0  0  0  0  0  0  0  0  0  0  0
   -0.4460   -7.1504   -4.7991 C   0  0  0  0  0  0  0  0  0  0  0  0
    1.7964   -6.5524   -4.2111 O   0  0  0  0  0  0  0  0  0  0  0  0
    2.9602  -10.0274   -6.4131 C   0  0  0  0  0  0  0  0  0  0  0  0
    4.1858  -10.5324   -6.6397 N   0  0  0  0  0  0  0  0  0  0  0  0
    4.3815  -11.6345   -7.5462 C   0  0  0  0  0  0  0  0  0  0  0  0
    1.9635  -10.3975   -7.0277 O   0  0  0  0  0  0  0  0  0  0  0  0
    2.2602  -12.3437   -5.0212 H   0  0  0  0  0  0  0  0  0  0  0  0
    0.3100  -11.6958   -5.8555 H   0  0  0  0  0  0  0  0  0  0  0  0
    0.1575  -10.7914   -4.3661 H   0  0  0  0  0  0  0  0  0  0  0  0
   -0.8534  -13.0115   -3.3610 H   0  0  0  0  0  0  0  0  0  0  0  0
   -1.0591  -13.5145   -5.0347 H   0  0  0  0  0  0  0  0  0  0  0  0
   -3.1115  -12.4694   -4.1322 H   0  0  0  0  0  0  0  0  0  0  0  0
   -2.4986  -11.5524   -5.5122 H   0  0  0  0  0  0  0  0  0  0  0  0
   -3.3232  -10.1085   -3.6264 H   0  0  0  0  0  0  0  0  0  0  0  0
   -1.6630   -9.7647   -4.0834 H   0  0  0  0  0  0  0  0  0  0  0  0
   -1.6287   -7.2335   -0.1642 H   0  0  0  0  0  0  0  0  0  0  0  0
   -0.1789   -6.6388   -1.0377 H   0  0  0  0  0  0  0  0  0  0  0  0
   -0.2158   -8.6753    1.2635 H   0  0  0  0  0  0  0  0  0  0  0  0
    0.4487   -7.0136    1.3284 H   0  0  0  0  0  0  0  0  0  0  0  0
    0.8958  -10.3328   -0.1407 H   0  0  0  0  0  0  0  0  0  0  0  0
    2.3771   -9.9258   -0.9955 H   0  0  0  0  0  0  0  0  0  0  0  0
    0.4928   -9.9009   -2.5963 H   0  0  0  0  0  0  0  0  0  0  0  0
    1.0861   -8.2475   -2.3709 H   0  0  0  0  0  0  0  0  0  0  0  0
    2.3754   -3.6143    0.8225 H   0  0  0  0  0  0  0  0  0  0  0  0
    4.1150   -3.4297    1.1917 H   0  0  0  0  0  0  0  0  0  0  0  0
    3.0215   -4.2592    2.3394 H   0  0  0  0  0  0  0  0  0  0  0  0
    5.4952   -4.9496   -0.1051 H   0  0  0  0  0  0  0  0  0  0  0  0
    5.7575   -7.2162   -1.1962 H   0  0  0  0  0  0  0  0  0  0  0  0
    3.9572   -8.8481   -1.0629 H   0  0  0  0  0  0  0  0  0  0  0  0
   -3.6671  -11.3383   -1.3995 H   0  0  0  0  0  0  0  0  0  0  0  0
   -0.3803  -12.4300   -0.9599 H   0  0  0  0  0  0  0  0  0  0  0  0
   -2.1472  -13.4522    2.1575 H   0  0  0  0  0  0  0  0  0  0  0  0
   -0.8684  -14.4170    4.0884 H   0  0  0  0  0  0  0  0  0  0  0  0
    2.7930  -13.9892    1.8973 H   0  0  0  0  0  0  0  0  0  0  0  0
    1.5205  -13.0178   -0.0334 H   0  0  0  0  0  0  0  0  0  0  0  0
    3.4768  -12.3219   -1.5770 H   0  0  0  0  0  0  0  0  0  0  0  0
    4.2692  -12.3163   -4.5825 H   0  0  0  0  0  0  0  0  0  0  0  0
    5.3757  -12.4371   -3.1443 H   0  0  0  0  0  0  0  0  0  0  0  0
    3.2670   -8.3840   -3.3307 H   0  0  0  0  0  0  0  0  0  0  0  0
    2.6754  -10.0457   -3.5095 H   0  0  0  0  0  0  0  0  0  0  0  0
    0.8814   -9.0826   -5.8889 H   0  0  0  0  0  0  0  0  0  0  0  0
   -0.9447   -7.7324   -5.5869 H   0  0  0  0  0  0  0  0  0  0  0  0
   -0.8554   -7.4587   -3.8235 H   0  0  0  0  0  0  0  0  0  0  0  0
   -0.6604   -6.0824   -4.9302 H   0  0  0  0  0  0  0  0  0  0  0  0
    4.8928  -10.3236   -5.9191 H   0  0  0  0  0  0  0  0  0  0  0  0
    5.4428  -11.6960   -7.8221 H   0  0  0  0  0  0  0  0  0  0  0  0
    3.7800  -11.4828   -8.4528 H   0  0  0  0  0  0  0  0  0  0  0  0
    4.0805  -12.6027   -7.1060 H   0  0  0  0  0  0  0  0  0  0  0  0
  2 36  1  0  0  0  0
  2  1  2  0  0  0  0
  3  2  1  0  0  0  0
  4  5  1  0  0  0  0
  4 52  1  0  0  0  0
  4  3  1  0  0  0  0
  5 53  1  0  0  0  0
  6  5  1  0  0  0  0
  6 55  1  0  0  0  0
  6  7  1  0  0  0  0
  7 57  1  0  0  0  0
  7  8  1  0  0  0  0
  8  9  1  1  0  0  0
  8 25  1  0  0  0  0
  8 10  1  0  0  0  0
 10 11  1  0  0  0  0
 10 24  2  0  0  0  0
 11 12  1  0  0  0  0
 12 59  1  0  0  0  0
 12 13  1  0  0  0  0
 13 61  1  0  0  0  0
 13 62  1  0  0  0  0
 14 13  1  0  0  0  0
 15 63  1  0  0  0  0
 15 14  1  0  0  0  0
 16 11  1  0  0  0  0
 16 15  1  0  0  0  0
 17 14  1  0  0  0  0
 17 18  1  0  0  0  0
 19 18  2  0  0  0  0
 19 20  1  0  0  0  0
 20 69  1  0  0  0  0
 21 19  1  0  0  0  0
 22 23  1  0  0  0  0
 22 21  2  0  0  0  0
 23 17  2  0  0  0  0
 25 73  1  0  0  0  0
 25 26  1  0  0  0  0
 26 27  1  0  0  0  0
 26 35  2  0  0  0  0
 27 28  1  0  0  0  0
 28 29  1  0  0  0  0
 29 75  1  0  0  0  0
 29 30  2  0  0  0  0
 30 76  1  0  0  0  0
 31 30  1  0  0  0  0
 31 32  1  0  0  0  0
 33 31  2  0  0  0  0
 34 28  2  0  0  0  0
 34 33  1  0  0  0  0
 36 79  1  0  0  0  0
 37 81  1  0  0  0  0
 37 36  1  0  0  0  0
 39 38  1  0  0  0  0
 39 83  1  0  0  0  0
 39 82  1  0  0  0  0
 40 41  1  6  0  0  0
 40 42  1  0  0  0  0
 40 39  1  0  0  0  0
 42 43  1  0  0  0  0
 43 45  2  0  0  0  0
 44 43  1  0  0  0  0
 44 86  1  0  0  0  0
 46 40  1  0  0  0  0
 47 46  1  0  0  0  0
 47 88  1  0  0  0  0
 48 91  1  0  0  0  0
 48 47  1  0  0  0  0
 49 46  2  0  0  0  0
 50  3  1  0  0  0  0
 51  4  1  0  0  0  0
 54  5  1  0  0  0  0
 56  6  1  0  0  0  0
 58  7  1  0  0  0  0
 60 12  1  0  0  0  0
 64 15  1  0  0  0  0
 65 16  1  0  0  0  0
 66 16  1  0  0  0  0
 67 20  1  0  0  0  0
 68 20  1  0  0  0  0
 70 21  1  0  0  0  0
 71 22  1  0  0  0  0
 72 23  1  0  0  0  0
 74 27  1  0  0  0  0
 77 33  1  0  0  0  0
 78 34  1  0  0  0  0
 80 37  1  0  0  0  0
 84 42  1  0  0  0  0
 85 44  1  0  0  0  0
 87 44  1  0  0  0  0
 89 48  1  0  0  0  0
 90 48  1  0  0  0  0
M  END
