91
-1 1
O        -0.213585   -2.102078   -0.380851
C         0.519809   -2.346622   -1.345005
N         0.111702   -2.151982   -2.615019
C        -1.133480   -1.474430   -2.927233
C        -2.388364   -2.263257   -2.551560
C        -3.659187   -1.409514   -2.530667
C        -3.593402   -0.180214   -1.616228
C        -3.071159   -0.466484   -0.204064
H        -2.067665   -0.888635   -0.300218
C        -3.036272    0.838385    0.615380
N        -1.891841    1.578851    0.611309
C        -1.759815    2.675934    1.566193
C        -0.793396    2.266634    2.683983
N         0.484433    1.833039    2.140366
C         0.325639    0.735735    1.202619
C        -0.603600    1.163292    0.066657
C         1.496693    2.769028    1.971368
N         1.322565    3.954520    2.560350
C         2.259490    4.901663    2.454789
C         1.962761    6.198605    3.161684
C         3.430511    4.713866    1.726836
C         3.620017    3.475859    1.104357
C         2.666450    2.484283    1.228313
O        -4.042888    1.177634    1.217635
N        -3.912816   -1.441340    0.458926
C        -3.542157   -2.133352    1.603908
N        -2.192167   -2.373667    1.729975
C        -1.534607   -2.955904    2.823646
C        -2.184665   -3.422835    3.975886
C        -1.443057   -3.968472    5.023186
C        -0.062624   -4.052616    4.925842
F         0.642171   -4.581726    5.938550
C         0.602117   -3.598351    3.794251
C        -0.133974   -3.051614    2.749464
O        -4.382942   -2.506468    2.401637
C         1.888637   -2.873151   -1.107142
C         2.960103   -2.588673   -1.849938
S         4.079424    0.644616   -1.745432
C         2.288334    0.898683   -1.974250
C         1.823871    1.237174   -3.411146
H         2.415247    2.107068   -3.743882
N         0.411749    1.553398   -3.465896
C        -0.130484    2.692374   -2.975886
C        -1.636760    2.812064   -3.127916
O         0.513150    3.554237   -2.402826
C         2.040318    0.083790   -4.395270
N         3.318105   -0.278529   -4.571339
C         3.666308   -1.397919   -5.405952
O         1.095458   -0.470925   -4.967243
H         0.780793   -2.244415   -3.370863
H        -1.111257   -1.259728   -4.004270
H        -1.127923   -0.495980   -2.423219
H        -2.246849   -2.713423   -1.559238
H        -2.516524   -3.101405   -3.255417
H        -4.493758   -2.050467   -2.207668
H        -3.904146   -1.067533   -3.551499
H        -4.594073    0.276626   -1.534922
H        -2.950567    0.595172   -2.058752
H        -2.755560    2.905165    1.962859
H        -1.362945    3.560941    1.042451
H        -1.233124    1.427309    3.249056
H        -0.620525    3.106864    3.364011
H        -0.121441   -0.123302    1.730320
H         1.287820    0.399654    0.802328
H        -0.710698    0.360870   -0.666362
H        -0.157462    2.027186   -0.451428
H         1.026959    6.632457    2.777439
H         2.771488    6.930987    3.030215
H         1.817885    6.019675    4.238201
H         4.167858    5.513674    1.638501
H         4.508101    3.266928    0.503080
H         2.851900    1.531068    0.734239
H        -4.869669   -1.119785    0.575557
H        -1.583898   -2.187430    0.933718
H        -3.267984   -3.353834    4.035832
H        -1.939345   -4.333309    5.924433
H         1.689776   -3.668180    3.739356
H         0.371717   -2.690493    1.851099
H         1.984060   -3.430105   -0.171117
H         2.914003   -1.954880   -2.737086
H         3.954779   -2.934019   -1.563982
H         1.963743    1.753050   -1.363492
H         1.710672    0.017779   -1.637685
H        -0.129902    0.923021   -4.048646
H        -2.074805    2.070838   -3.811518
H        -2.088163    2.691048   -2.130797
H        -1.878737    3.824835   -3.475976
H         3.966906    0.047573   -3.817111
H         4.750151   -1.392539   -5.582060
H         3.143751   -1.329880   -6.370863
H         3.395177   -2.369515   -4.952779
