-1 1
 OpenBabel05232414493D

 91 93  0  0  1  0  0  0  0  0999 V2000
    5.0609    6.5452   19.0322 O   0  0  0  0  0  0  0  0  0  0  0  0
    4.7306    7.6008   18.4824 C   0  0  0  0  0  0  0  0  0  0  0  0
    3.7293    7.5681   17.4740 N   0  0  0  0  0  0  0  0  0  0  0  0
    2.9780    6.3526   17.2984 C   0  0  0  0  0  0  0  0  0  0  0  0
    2.5021    6.1272   15.8647 C   0  0  0  0  0  0  0  0  0  0  0  0
    1.3441    7.0319   15.4377 C   0  0  0  0  0  0  0  0  0  0  0  0
    0.8306    6.7793   14.0117 C   0  0  0  0  0  0  0  0  0  0  0  0
    1.4487    7.6398   12.9011 C   0  0  1  0  0  0  0  0  0  0  0  0
    1.0859    7.2288   11.9397 H   0  0  0  0  0  0  0  0  0  0  0  0
    0.8788    9.0771   12.9269 C   0  0  0  0  0  0  0  0  0  0  0  0
    1.2405    9.9569   11.9468 N   0  0  0  0  0  0  0  0  0  0  0  0
    2.2736    9.7226   10.9529 C   0  0  0  0  0  0  0  0  0  0  0  0
    1.9544   10.4886    9.6672 C   0  0  0  0  0  0  0  0  0  0  0  0
    1.7490   11.9001    9.9327 N   0  0  0  0  0  0  0  0  0  0  0  0
    0.6347   12.0706   10.8579 C   0  0  0  0  0  0  0  0  0  0  0  0
    0.9163   11.3655   12.1765 C   0  0  0  0  0  0  0  0  0  0  0  0
    2.8498   12.7384   10.0853 C   0  0  0  0  0  0  0  0  0  0  0  0
    2.7083   13.7718   10.9136 N   0  0  0  0  0  0  0  0  0  0  0  0
    3.7227   14.6121   11.1380 C   0  0  0  0  0  0  0  0  0  0  0  0
    3.4766   15.6881   12.1550 C   0  0  0  0  0  0  0  0  0  0  0  0
    4.9538   14.4636   10.4975 C   0  0  0  0  0  0  0  0  0  0  0  0
    5.1048   13.4028    9.6050 C   0  0  0  0  0  0  0  0  0  0  0  0
    4.0585   12.5228    9.3853 C   0  0  0  0  0  0  0  0  0  0  0  0
    0.0076    9.3452   13.7337 O   0  0  0  0  0  0  0  0  0  0  0  0
    2.8995    7.5196   12.8371 N   0  0  0  0  0  0  0  0  0  0  0  0
    3.8505    8.2649   13.4782 C   0  0  0  0  0  0  0  0  0  0  0  0
    5.0951    7.7201   13.3568 N   0  0  0  0  0  0  0  0  0  0  0  0
    6.2865    8.1704   13.9912 C   0  0  0  0  0  0  0  0  0  0  0  0
    6.3627    8.2277   15.3824 C   0  0  0  0  0  0  0  0  0  0  0  0
    7.5480    8.6379   15.9872 C   0  0  0  0  0  0  0  0  0  0  0  0
    8.6582    8.9660   15.2084 C   0  0  0  0  0  0  0  0  0  0  0  0
    8.5817    8.8919   13.8175 C   0  0  0  0  0  0  0  0  0  0  0  0
    7.3914    8.5030   13.2051 C   0  0  0  0  0  0  0  0  0  0  0  0
    3.5519    9.7042   14.2614 S   0  0  0  0  0  0  0  0  0  0  0  0
    5.2914    8.8916   18.7465 C   0  0  0  0  0  3  0  0  0  0  0  0
    4.9775   10.0632   18.0165 C   0  0  0  0  0  0  0  0  0  0  0  0
    3.0512   10.9527   18.4088 S   0  0  0  0  0  0  0  0  0  0  0  0
    3.0203   12.1334   17.0223 C   0  0  0  0  0  0  0  0  0  0  0  0
    1.6123   12.4473   16.5144 C   0  0  2  0  0  0  0  0  0  0  0  0
    1.0752   13.0458   17.2728 H   0  0  0  0  0  0  0  0  0  0  0  0
    0.8527   11.2243   16.3182 N   0  0  0  0  0  0  0  0  0  0  0  0
   -0.4854   11.1510   16.4821 C   0  0  0  0  0  0  0  0  0  0  0  0
   -1.0379    9.7589   16.6689 C   0  0  0  0  0  0  0  0  0  0  0  0
   -1.2062   12.1490   16.4785 O   0  0  0  0  0  0  0  0  0  0  0  0
    1.6556   13.3101   15.2342 C   0  0  0  0  0  0  0  0  0  0  0  0
    0.4348   13.6861   14.7946 N   0  0  0  0  0  0  0  0  0  0  0  0
    0.2558   14.4841   13.6115 C   0  0  0  0  0  0  0  0  0  0  0  0
    2.7003   13.6367   14.6892 O   0  0  0  0  0  0  0  0  0  0  0  0
    3.2056    8.4368   17.3899 H   0  0  0  0  0  0  0  0  0  0  0  0
    2.0989    6.3033   17.9767 H   0  0  0  0  0  0  0  0  0  0  0  0
    3.6469    5.5404   17.6157 H   0  0  0  0  0  0  0  0  0  0  0  0
    2.1742    5.0753   15.7654 H   0  0  0  0  0  0  0  0  0  0  0  0
    3.3656    6.2536   15.1904 H   0  0  0  0  0  0  0  0  0  0  0  0
    1.6282    8.0897   15.5406 H   0  0  0  0  0  0  0  0  0  0  0  0
    0.5112    6.8717   16.1419 H   0  0  0  0  0  0  0  0  0  0  0  0
   -0.2551    6.9393   13.9635 H   0  0  0  0  0  0  0  0  0  0  0  0
    1.0022    5.7195   13.7479 H   0  0  0  0  0  0  0  0  0  0  0  0
    2.3472    8.6522   10.7272 H   0  0  0  0  0  0  0  0  0  0  0  0
    3.2550   10.0534   11.3423 H   0  0  0  0  0  0  0  0  0  0  0  0
    1.0294   10.0879    9.2200 H   0  0  0  0  0  0  0  0  0  0  0  0
    2.7553   10.3316    8.9349 H   0  0  0  0  0  0  0  0  0  0  0  0
   -0.2632   11.6425   10.3823 H   0  0  0  0  0  0  0  0  0  0  0  0
    0.4655   13.1367   11.0308 H   0  0  0  0  0  0  0  0  0  0  0  0
    0.0548   11.4107   12.8514 H   0  0  0  0  0  0  0  0  0  0  0  0
    1.7685   11.8527   12.6855 H   0  0  0  0  0  0  0  0  0  0  0  0
    2.5798   16.2670   11.8872 H   0  0  0  0  0  0  0  0  0  0  0  0
    4.3323   16.3714   12.2429 H   0  0  0  0  0  0  0  0  0  0  0  0
    3.2854   15.2086   13.1302 H   0  0  0  0  0  0  0  0  0  0  0  0
    5.7741   15.1519   10.7051 H   0  0  0  0  0  0  0  0  0  0  0  0
    6.0520   13.2561    9.0798 H   0  0  0  0  0  0  0  0  0  0  0  0
    4.1777   11.6971    8.6855 H   0  0  0  0  0  0  0  0  0  0  0  0
    3.1917    6.5831   12.5814 H   0  0  0  0  0  0  0  0  0  0  0  0
    5.2078    6.9437   12.7162 H   0  0  0  0  0  0  0  0  0  0  0  0
    5.4939    7.9597   15.9914 H   0  0  0  0  0  0  0  0  0  0  0  0
    7.5685    8.6940   17.0786 H   0  0  0  0  0  0  0  0  0  0  0  0
    9.5876    9.2832   15.6875 H   0  0  0  0  0  0  0  0  0  0  0  0
    9.4469    9.1525   13.2030 H   0  0  0  0  0  0  0  0  0  0  0  0
    7.3109    8.4671   12.1156 H   0  0  0  0  0  0  0  0  0  0  0  0
    5.8849    8.9606   19.6609 H   0  0  0  0  0  0  0  0  0  0  0  0
    4.7913    9.9648   16.9388 H   0  0  0  0  0  0  0  0  0  0  0  0
    5.6004   10.9365   18.2352 H   0  0  0  0  0  0  0  0  0  0  0  0
    3.6206   11.7238   16.1928 H   0  0  0  0  0  0  0  0  0  0  0  0
    3.4952   13.0841   17.3016 H   0  0  0  0  0  0  0  0  0  0  0  0
    1.3930   10.3732   16.4482 H   0  0  0  0  0  0  0  0  0  0  0  0
   -0.8417    9.1755   15.7586 H   0  0  0  0  0  0  0  0  0  0  0  0
   -2.1167    9.8268   16.8499 H   0  0  0  0  0  0  0  0  0  0  0  0
   -0.5446    9.2634   17.5188 H   0  0  0  0  0  0  0  0  0  0  0  0
   -0.3694   13.3556   15.3379 H   0  0  0  0  0  0  0  0  0  0  0  0
   -0.7139   14.2475   13.1494 H   0  0  0  0  0  0  0  0  0  0  0  0
    1.0579   14.2731   12.8889 H   0  0  0  0  0  0  0  0  0  0  0  0
    0.2773   15.5676   13.8279 H   0  0  0  0  0  0  0  0  0  0  0  0
  2 35  1  0  0  0  0
  2  1  2  0  0  0  0
  3  2  1  0  0  0  0
  4  3  1  0  0  0  0
  4 51  1  0  0  0  0
  4 50  1  0  0  0  0
  5  4  1  0  0  0  0
  6 54  1  0  0  0  0
  6  5  1  0  0  0  0
  6 55  1  0  0  0  0
  7  6  1  0  0  0  0
  8  9  1  6  0  0  0
  8 10  1  0  0  0  0
  8  7  1  0  0  0  0
 10 24  2  0  0  0  0
 11 16  1  0  0  0  0
 11 10  1  0  0  0  0
 12 59  1  0  0  0  0
 12 11  1  0  0  0  0
 13 14  1  0  0  0  0
 13 12  1  0  0  0  0
 14 17  1  0  0  0  0
 14 15  1  0  0  0  0
 15 63  1  0  0  0  0
 15 16  1  0  0  0  0
 16 65  1  0  0  0  0
 16 64  1  0  0  0  0
 17 18  1  0  0  0  0
 18 19  2  0  0  0  0
 19 20  1  0  0  0  0
 20 67  1  0  0  0  0
 20 68  1  0  0  0  0
 21 69  1  0  0  0  0
 21 19  1  0  0  0  0
 22 21  2  0  0  0  0
 23 22  1  0  0  0  0
 23 17  2  0  0  0  0
 25  8  1  0  0  0  0
 25 26  1  0  0  0  0
 26 34  2  0  0  0  0
 27 26  1  0  0  0  0
 27 28  1  0  0  0  0
 28 29  1  0  0  0  0
 29 30  2  0  0  0  0
 29 74  1  0  0  0  0
 30 75  1  0  0  0  0
 31 76  1  0  0  0  0
 31 30  1  0  0  0  0
 32 31  2  0  0  0  0
 33 32  1  0  0  0  0
 33 28  2  0  0  0  0
 35 79  1  0  0  0  0
 36 81  1  0  0  0  0
 36 37  1  0  0  0  0
 36 35  1  0  0  0  0
 38 83  1  0  0  0  0
 38 37  1  0  0  0  0
 39 38  1  0  0  0  0
 39 40  1  1  0  0  0
 41 84  1  0  0  0  0
 41 42  1  0  0  0  0
 41 39  1  0  0  0  0
 42 43  1  0  0  0  0
 43 86  1  0  0  0  0
 43 87  1  0  0  0  0
 44 42  2  0  0  0  0
 45 39  1  0  0  0  0
 46 45  1  0  0  0  0
 46 88  1  0  0  0  0
 47 91  1  0  0  0  0
 47 46  1  0  0  0  0
 48 45  2  0  0  0  0
 49  3  1  0  0  0  0
 52  5  1  0  0  0  0
 53  5  1  0  0  0  0
 56  7  1  0  0  0  0
 57  7  1  0  0  0  0
 58 12  1  0  0  0  0
 60 13  1  0  0  0  0
 61 13  1  0  0  0  0
 62 15  1  0  0  0  0
 66 20  1  0  0  0  0
 70 22  1  0  0  0  0
 71 23  1  0  0  0  0
 72 25  1  0  0  0  0
 73 27  1  0  0  0  0
 77 32  1  0  0  0  0
 78 33  1  0  0  0  0
 80 36  1  0  0  0  0
 82 38  1  0  0  0  0
 85 43  1  0  0  0  0
 89 47  1  0  0  0  0
 90 47  1  0  0  0  0
M  END
