-1 1
 OpenBabel05232413493D

 91 92  0  0  1  0  0  0  0  0999 V2000
    2.1371   -3.3157    2.2448 O   0  0  0  0  0  0  0  0  0  0  0  0
    1.6771   -2.3228    2.8400 C   0  0  0  0  0  0  0  0  0  0  0  0
    0.4552   -2.3216    3.3855 N   0  0  0  0  0  0  0  0  0  0  0  0
   -0.3638   -3.5109    3.4072 C   0  0  0  0  0  0  0  0  0  0  0  0
   -0.9155   -3.9248    2.0446 C   0  0  0  0  0  0  0  0  0  0  0  0
   -1.8889   -2.9320    1.4157 C   0  0  0  0  0  0  0  0  0  0  0  0
   -2.2943   -3.3492   -0.0062 C   0  0  0  0  0  0  0  0  0  0  0  0
   -1.5623   -2.6116   -1.1340 C   0  0  1  0  0  0  0  0  0  0  0  0
   -1.7700   -3.1624   -2.0699 H   0  0  0  0  0  0  0  0  0  0  0  0
   -2.1779   -1.2117   -1.3582 C   0  0  0  0  0  0  0  0  0  0  0  0
   -1.7622   -0.4672   -2.4318 N   0  0  0  0  0  0  0  0  0  0  0  0
   -0.6620   -0.8603   -3.2983 C   0  0  0  0  0  0  0  0  0  0  0  0
   -0.7034   -0.0854   -4.6131 C   0  0  0  0  0  0  0  0  0  0  0  0
   -0.7189    1.3444   -4.3583 N   0  0  0  0  0  0  0  0  0  0  0  0
   -1.9471    1.6870   -3.6512 C   0  0  0  0  0  0  0  0  0  0  0  0
   -2.0443    0.9686   -2.3159 C   0  0  0  0  0  0  0  0  0  0  0  0
    0.4640    1.9466   -3.9279 C   0  0  0  0  0  0  0  0  0  0  0  0
    0.3613    2.9086   -3.0139 N   0  0  0  0  0  0  0  0  0  0  0  0
    1.4541    3.5030   -2.5229 C   0  0  0  0  0  0  0  0  0  0  0  0
    1.2311    4.5188   -1.4413 C   0  0  0  0  0  0  0  0  0  0  0  0
    2.7332    3.1650   -2.9702 C   0  0  0  0  0  0  0  0  0  0  0  0
    2.8490    2.1889   -3.9590 C   0  0  0  0  0  0  0  0  0  0  0  0
    1.7175    1.5596   -4.4501 C   0  0  0  0  0  0  0  0  0  0  0  0
   -3.0987   -0.8495   -0.6536 O   0  0  0  0  0  0  0  0  0  0  0  0
   -0.1121   -2.6479   -0.9904 N   0  0  0  0  0  0  0  0  0  0  0  0
    0.7657   -1.7405   -0.4890 C   0  0  0  0  0  0  0  0  0  0  0  0
    2.0424   -2.3226   -0.4003 N   0  0  0  0  0  0  0  0  0  0  0  0
    3.2497   -1.6302   -0.5543 C   0  0  0  0  0  0  0  0  0  0  0  0
    4.3748   -2.1059    0.1384 C   0  0  0  0  0  0  0  0  0  0  0  0
    5.6187   -1.5078   -0.0364 C   0  0  0  0  0  0  0  0  0  0  0  0
    5.7680   -0.4204   -0.8963 C   0  0  0  0  0  0  0  0  0  0  0  0
    4.6500    0.0544   -1.5813 C   0  0  0  0  0  0  0  0  0  0  0  0
    3.4016   -0.5407   -1.4244 C   0  0  0  0  0  0  0  0  0  0  0  0
    0.4024   -0.1940   -0.0240 S   0  0  0  0  0  0  0  0  0  0  0  0
    2.5049   -1.0874    2.9671 C   0  0  0  0  0  0  0  0  0  0  0  0
    2.3132   -0.1049    3.8488 C   0  0  0  0  0  0  0  0  0  0  0  0
   -1.2505    0.1040    4.6221 S   0  0  0  0  0  1  0  0  0  0  0  0
   -0.7886    1.2674    3.2824 C   0  0  0  0  0  0  0  0  0  0  0  0
   -1.9890    1.7989    2.4867 C   0  0  2  0  0  0  0  0  0  0  0  0
   -2.5663    2.4950    3.1260 H   0  0  0  0  0  0  0  0  0  0  0  0
   -2.8498    0.6766    2.1496 N   0  0  0  0  0  0  0  0  0  0  0  0
   -4.1620    0.7563    1.8647 C   0  0  0  0  0  0  0  0  0  0  0  0
   -4.9062   -0.5584    1.9331 C   0  0  0  0  0  0  0  0  0  0  0  0
   -4.7341    1.8001    1.5437 O   0  0  0  0  0  0  0  0  0  0  0  0
   -1.5358    2.6260    1.2615 C   0  0  0  0  0  0  0  0  0  0  0  0
   -2.5446    3.0885    0.4936 N   0  0  0  0  0  0  0  0  0  0  0  0
   -2.3102    3.9461   -0.6363 C   0  0  0  0  0  0  0  0  0  0  0  0
   -0.3604    2.8933    1.0442 O   0  0  0  0  0  0  0  0  0  0  0  0
    0.0253   -1.4654    3.8062 H   0  0  0  0  0  0  0  0  0  0  0  0
   -1.1927   -3.3056    4.1030 H   0  0  0  0  0  0  0  0  0  0  0  0
    0.2263   -4.3482    3.8163 H   0  0  0  0  0  0  0  0  0  0  0  0
   -1.4186   -4.9023    2.1605 H   0  0  0  0  0  0  0  0  0  0  0  0
   -0.0614   -4.0956    1.3713 H   0  0  0  0  0  0  0  0  0  0  0  0
   -1.4484   -1.9226    1.4041 H   0  0  0  0  0  0  0  0  0  0  0  0
   -2.7865   -2.8524    2.0488 H   0  0  0  0  0  0  0  0  0  0  0  0
   -3.3690   -3.1952   -0.1709 H   0  0  0  0  0  0  0  0  0  0  0  0
   -2.1088   -4.4302   -0.1355 H   0  0  0  0  0  0  0  0  0  0  0  0
   -0.7205   -1.9369   -3.5101 H   0  0  0  0  0  0  0  0  0  0  0  0
    0.3107   -0.6625   -2.8141 H   0  0  0  0  0  0  0  0  0  0  0  0
   -1.6135   -0.3410   -5.1795 H   0  0  0  0  0  0  0  0  0  0  0  0
    0.1517   -0.3747   -5.2363 H   0  0  0  0  0  0  0  0  0  0  0  0
   -2.7890    1.4102   -4.3070 H   0  0  0  0  0  0  0  0  0  0  0  0
   -1.9828    2.7677   -3.4789 H   0  0  0  0  0  0  0  0  0  0  0  0
   -3.0411    1.0841   -1.8756 H   0  0  0  0  0  0  0  0  0  0  0  0
   -1.3200    1.4040   -1.6070 H   0  0  0  0  0  0  0  0  0  0  0  0
    0.5288    5.2917   -1.7889 H   0  0  0  0  0  0  0  0  0  0  0  0
    2.1706    4.9997   -1.1367 H   0  0  0  0  0  0  0  0  0  0  0  0
    0.7733    4.0288   -0.5640 H   0  0  0  0  0  0  0  0  0  0  0  0
    3.6135    3.6495   -2.5457 H   0  0  0  0  0  0  0  0  0  0  0  0
    3.8318    1.9092   -4.3471 H   0  0  0  0  0  0  0  0  0  0  0  0
    1.8040    0.7998   -5.2256 H   0  0  0  0  0  0  0  0  0  0  0  0
    0.3265   -3.5197   -1.2638 H   0  0  0  0  0  0  0  0  0  0  0  0
    2.0816   -3.0036    0.3723 H   0  0  0  0  0  0  0  0  0  0  0  0
    4.2425   -2.9296    0.8438 H   0  0  0  0  0  0  0  0  0  0  0  0
    6.4776   -1.8911    0.5204 H   0  0  0  0  0  0  0  0  0  0  0  0
    6.7417    0.0573   -1.0251 H   0  0  0  0  0  0  0  0  0  0  0  0
    4.7408    0.9136   -2.2490 H   0  0  0  0  0  0  0  0  0  0  0  0
    2.5438   -0.1399   -1.9655 H   0  0  0  0  0  0  0  0  0  0  0  0
    3.3487   -1.0570    2.2740 H   0  0  0  0  0  0  0  0  0  0  0  0
    1.4684   -0.0910    4.5484 H   0  0  0  0  0  0  0  0  0  0  0  0
    2.9896    0.7539    3.8626 H   0  0  0  0  0  0  0  0  0  0  0  0
   -0.1015    0.7775    2.5735 H   0  0  0  0  0  0  0  0  0  0  0  0
   -0.2459    2.1341    3.6840 H   0  0  0  0  0  0  0  0  0  0  0  0
   -2.5421   -0.1668    2.6438 H   0  0  0  0  0  0  0  0  0  0  0  0
   -4.6104   -1.1582    1.0608 H   0  0  0  0  0  0  0  0  0  0  0  0
   -5.9840   -0.3599    1.9016 H   0  0  0  0  0  0  0  0  0  0  0  0
   -4.6495   -1.1117    2.8489 H   0  0  0  0  0  0  0  0  0  0  0  0
   -3.4974    2.8240    0.7729 H   0  0  0  0  0  0  0  0  0  0  0  0
   -3.2196    3.9845   -1.2528 H   0  0  0  0  0  0  0  0  0  0  0  0
   -1.4790    3.5753   -1.2549 H   0  0  0  0  0  0  0  0  0  0  0  0
   -2.0554    4.9778   -0.3321 H   0  0  0  0  0  0  0  0  0  0  0  0
  1  2  2  0  0  0  0
  2 35  1  0  0  0  0
  2  3  1  0  0  0  0
  3  4  1  0  0  0  0
  3 49  1  0  0  0  0
  4 51  1  0  0  0  0
  4 50  1  0  0  0  0
  5 52  1  0  0  0  0
  5  4  1  0  0  0  0
  6  5  1  0  0  0  0
  6 55  1  0  0  0  0
  7  6  1  0  0  0  0
  8  9  1  6  0  0  0
  8 25  1  0  0  0  0
  8  7  1  0  0  0  0
 10  8  1  0  0  0  0
 10 24  2  0  0  0  0
 11 16  1  0  0  0  0
 11 10  1  0  0  0  0
 12 59  1  0  0  0  0
 12 11  1  0  0  0  0
 13 14  1  0  0  0  0
 13 12  1  0  0  0  0
 14 17  1  0  0  0  0
 14 15  1  0  0  0  0
 15 63  1  0  0  0  0
 15 16  1  0  0  0  0
 16 64  1  0  0  0  0
 16 65  1  0  0  0  0
 17 18  1  0  0  0  0
 18 19  2  0  0  0  0
 19 20  1  0  0  0  0
 20 67  1  0  0  0  0
 20 68  1  0  0  0  0
 21 69  1  0  0  0  0
 21 19  1  0  0  0  0
 22 21  2  0  0  0  0
 23 22  1  0  0  0  0
 23 17  2  0  0  0  0
 25 26  1  0  0  0  0
 26 27  1  0  0  0  0
 26 34  2  0  0  0  0
 27 73  1  0  0  0  0
 28 27  1  0  0  0  0
 28 29  1  0  0  0  0
 29 74  1  0  0  0  0
 30 29  2  0  0  0  0
 30 75  1  0  0  0  0
 31 30  1  0  0  0  0
 32 33  1  0  0  0  0
 32 31  2  0  0  0  0
 33 28  2  0  0  0  0
 35 36  2  0  0  0  0
 36 81  1  0  0  0  0
 36 80  1  0  0  0  0
 38 83  1  0  0  0  0
 38 37  1  0  0  0  0
 39 40  1  1  0  0  0
 39 38  1  0  0  0  0
 41 39  1  0  0  0  0
 41 84  1  0  0  0  0
 42 43  1  0  0  0  0
 42 41  1  0  0  0  0
 43 87  1  0  0  0  0
 44 42  2  0  0  0  0
 45 39  1  0  0  0  0
 46 88  1  0  0  0  0
 46 45  1  0  0  0  0
 47 91  1  0  0  0  0
 47 46  1  0  0  0  0
 48 45  2  0  0  0  0
 53  5  1  0  0  0  0
 54  6  1  0  0  0  0
 56  7  1  0  0  0  0
 57  7  1  0  0  0  0
 58 12  1  0  0  0  0
 60 13  1  0  0  0  0
 61 13  1  0  0  0  0
 62 15  1  0  0  0  0
 66 20  1  0  0  0  0
 70 22  1  0  0  0  0
 71 23  1  0  0  0  0
 72 25  1  0  0  0  0
 76 31  1  0  0  0  0
 77 32  1  0  0  0  0
 78 33  1  0  0  0  0
 79 35  1  0  0  0  0
 82 38  1  0  0  0  0
 85 43  1  0  0  0  0
 86 43  1  0  0  0  0
 89 47  1  0  0  0  0
 90 47  1  0  0  0  0
M  END
