-1 1
 OpenBabel05192410563D

 91 93  0  0  1  0  0  0  0  0999 V2000
    1.9680   -3.7588    4.7868 O   0  0  0  0  0  0  0  0  0  0  0  0
    1.6778   -2.7012    4.2086 C   0  0  0  0  0  0  0  0  0  0  0  0
    0.7184   -2.7618    3.1369 N   0  0  0  0  0  0  0  0  0  0  0  0
   -0.0342   -3.9797    2.9885 C   0  0  0  0  0  0  0  0  0  0  0  0
   -0.5098   -4.2277    1.5585 C   0  0  0  0  0  0  0  0  0  0  0  0
   -1.6506   -3.3097    1.1151 C   0  0  0  0  0  0  0  0  0  0  0  0
   -2.1606   -3.5625   -0.3121 C   0  0  0  0  0  0  0  0  0  0  0  0
   -1.5405   -2.6960   -1.4167 C   0  0  1  0  0  0  0  0  0  0  0  0
   -1.9012   -3.0997   -2.3819 H   0  0  0  0  0  0  0  0  0  0  0  0
   -2.1080   -1.2579   -1.3807 C   0  0  0  0  0  0  0  0  0  0  0  0
   -1.7678   -0.3804   -2.3701 N   0  0  0  0  0  0  0  0  0  0  0  0
   -0.7380   -0.6093   -3.3688 C   0  0  0  0  0  0  0  0  0  0  0  0
   -1.0677    0.1546   -4.6530 C   0  0  0  0  0  0  0  0  0  0  0  0
   -1.2813    1.5649   -4.3869 N   0  0  0  0  0  0  0  0  0  0  0  0
   -2.3911    1.7294   -3.4558 C   0  0  0  0  0  0  0  0  0  0  0  0
   -2.0971    1.0265   -2.1389 C   0  0  0  0  0  0  0  0  0  0  0  0
   -0.1872    2.4135   -4.2450 C   0  0  0  0  0  0  0  0  0  0  0  0
   -0.3338    3.4507   -3.4219 N   0  0  0  0  0  0  0  0  0  0  0  0
    0.6737    4.3025   -3.2102 C   0  0  0  0  0  0  0  0  0  0  0  0
    0.4241    5.3825   -2.1982 C   0  0  0  0  0  0  0  0  0  0  0  0
    1.9020    4.1624   -3.8576 C   0  0  0  0  0  0  0  0  0  0  0  0
    2.0582    3.0967   -4.7435 C   0  0  0  0  0  0  0  0  0  0  0  0
    1.0194    2.2050   -4.9506 C   0  0  0  0  0  0  0  0  0  0  0  0
   -2.9637   -0.9874   -0.5574 O   0  0  0  0  0  0  0  0  0  0  0  0
   -0.0894   -2.8190   -1.4752 N   0  0  0  0  0  0  0  0  0  0  0  0
    0.8613   -2.0775   -0.8297 C   0  0  0  0  0  0  0  0  0  0  0  0
    2.0985   -2.6388   -0.9059 N   0  0  0  0  0  0  0  0  0  0  0  0
    3.2795   -2.1779   -0.2529 C   0  0  0  0  0  0  0  0  0  0  0  0
    3.3390   -2.1415    1.1392 C   0  0  0  0  0  0  0  0  0  0  0  0
    4.5109   -1.7185    1.7627 C   0  0  0  0  0  0  0  0  0  0  0  0
    5.6212   -1.3571    0.9995 C   0  0  0  0  0  0  0  0  0  0  0  0
    5.5605   -1.4102   -0.3938 C   0  0  0  0  0  0  0  0  0  0  0  0
    4.3843   -1.8126   -1.0242 C   0  0  0  0  0  0  0  0  0  0  0  0
    0.5709   -0.6103   -0.0918 S   0  0  0  0  0  0  0  0  0  0  0  0
    2.2258   -1.4197    4.4601 C   0  0  0  0  0  3  0  0  0  0  0  0
    1.9275   -0.2273    3.6876 C   0  0  0  0  0  0  0  0  0  0  0  0
    0.1711    0.6094    4.0359 S   0  0  0  0  0  0  0  0  0  0  0  0
    0.1078    1.7793    2.6391 C   0  0  0  0  0  0  0  0  0  0  0  0
   -1.3137    2.0971    2.1805 C   0  0  2  0  0  0  0  0  0  0  0  0
   -1.8308    2.6853    2.9598 H   0  0  0  0  0  0  0  0  0  0  0  0
   -2.0899    0.8851    1.9897 N   0  0  0  0  0  0  0  0  0  0  0  0
   -3.4184    0.8207    2.2241 C   0  0  0  0  0  0  0  0  0  0  0  0
   -3.9837   -0.5691    2.3803 C   0  0  0  0  0  0  0  0  0  0  0  0
   -4.1151    1.8315    2.3132 O   0  0  0  0  0  0  0  0  0  0  0  0
   -1.3076    2.9737    0.9089 C   0  0  0  0  0  0  0  0  0  0  0  0
   -2.5422    3.3531    0.5124 N   0  0  0  0  0  0  0  0  0  0  0  0
   -2.7618    4.1437   -0.6694 C   0  0  0  0  0  0  0  0  0  0  0  0
   -0.2805    3.2974    0.3311 O   0  0  0  0  0  0  0  0  0  0  0  0
    0.1778   -1.9059    3.0414 H   0  0  0  0  0  0  0  0  0  0  0  0
   -0.9155   -4.0211    3.6665 H   0  0  0  0  0  0  0  0  0  0  0  0
    0.6340   -4.7856    3.3232 H   0  0  0  0  0  0  0  0  0  0  0  0
   -0.8547   -5.2757    1.4753 H   0  0  0  0  0  0  0  0  0  0  0  0
    0.3564   -4.1239    0.8829 H   0  0  0  0  0  0  0  0  0  0  0  0
   -1.3459   -2.2572    1.2114 H   0  0  0  0  0  0  0  0  0  0  0  0
   -2.4892   -3.4471    1.8171 H   0  0  0  0  0  0  0  0  0  0  0  0
   -3.2471   -3.4085   -0.3640 H   0  0  0  0  0  0  0  0  0  0  0  0
   -1.9828   -4.6206   -0.5784 H   0  0  0  0  0  0  0  0  0  0  0  0
   -0.6589   -1.6796   -3.5938 H   0  0  0  0  0  0  0  0  0  0  0  0
    0.2427   -0.2732   -2.9824 H   0  0  0  0  0  0  0  0  0  0  0  0
   -1.9921   -0.2519   -5.0964 H   0  0  0  0  0  0  0  0  0  0  0  0
   -0.2690    0.0030   -5.3887 H   0  0  0  0  0  0  0  0  0  0  0  0
   -3.2895    1.2958   -3.9256 H   0  0  0  0  0  0  0  0  0  0  0  0
   -2.5653    2.7947   -3.2821 H   0  0  0  0  0  0  0  0  0  0  0  0
   -2.9545    1.0677   -1.4585 H   0  0  0  0  0  0  0  0  0  0  0  0
   -1.2437    1.5184   -1.6359 H   0  0  0  0  0  0  0  0  0  0  0  0
   -0.4862    5.9441   -2.4572 H   0  0  0  0  0  0  0  0  0  0  0  0
    1.2694    6.0805   -2.1275 H   0  0  0  0  0  0  0  0  0  0  0  0
    0.2557    4.9067   -1.2173 H   0  0  0  0  0  0  0  0  0  0  0  0
    2.7165    4.8605   -3.6603 H   0  0  0  0  0  0  0  0  0  0  0  0
    3.0037    2.9555   -5.2734 H   0  0  0  0  0  0  0  0  0  0  0  0
    1.1429    1.3755   -5.6450 H   0  0  0  0  0  0  0  0  0  0  0  0
    0.1989   -3.7583   -1.7257 H   0  0  0  0  0  0  0  0  0  0  0  0
    2.2049   -3.4775   -1.4640 H   0  0  0  0  0  0  0  0  0  0  0  0
    2.4658   -2.4291    1.7362 H   0  0  0  0  0  0  0  0  0  0  0  0
    4.5148   -1.6764    2.8554 H   0  0  0  0  0  0  0  0  0  0  0  0
    6.5397   -1.0289    1.4923 H   0  0  0  0  0  0  0  0  0  0  0  0
    6.4267   -1.1230   -0.9948 H   0  0  0  0  0  0  0  0  0  0  0  0
    4.3135   -1.8339   -2.1147 H   0  0  0  0  0  0  0  0  0  0  0  0
    2.8379   -1.3351    5.3606 H   0  0  0  0  0  0  0  0  0  0  0  0
    1.8446   -0.3754    2.5985 H   0  0  0  0  0  0  0  0  0  0  0  0
    2.6316    0.5929    3.8811 H   0  0  0  0  0  0  0  0  0  0  0  0
    0.6769    1.3478    1.8005 H   0  0  0  0  0  0  0  0  0  0  0  0
    0.6034    2.7265    2.8928 H   0  0  0  0  0  0  0  0  0  0  0  0
   -1.5588    0.0208    1.9536 H   0  0  0  0  0  0  0  0  0  0  0  0
   -3.7870   -1.1431    1.4644 H   0  0  0  0  0  0  0  0  0  0  0  0
   -5.0625   -0.4955    2.5590 H   0  0  0  0  0  0  0  0  0  0  0  0
   -3.4984   -1.0792    3.2262 H   0  0  0  0  0  0  0  0  0  0  0  0
   -3.3269    3.0352    1.0893 H   0  0  0  0  0  0  0  0  0  0  0  0
   -3.7375    3.8896   -1.1091 H   0  0  0  0  0  0  0  0  0  0  0  0
   -1.9724    3.9404   -1.4080 H   0  0  0  0  0  0  0  0  0  0  0  0
   -2.7523    5.2281   -0.4579 H   0  0  0  0  0  0  0  0  0  0  0  0
  2 35  1  0  0  0  0
  2  1  2  0  0  0  0
  3  2  1  0  0  0  0
  4  3  1  0  0  0  0
  4 51  1  0  0  0  0
  4 50  1  0  0  0  0
  5  4  1  0  0  0  0
  6 54  1  0  0  0  0
  6  5  1  0  0  0  0
  6 55  1  0  0  0  0
  7  6  1  0  0  0  0
  8  9  1  6  0  0  0
  8 10  1  0  0  0  0
  8  7  1  0  0  0  0
 10 24  2  0  0  0  0
 11 16  1  0  0  0  0
 11 10  1  0  0  0  0
 12 59  1  0  0  0  0
 12 11  1  0  0  0  0
 13 14  1  0  0  0  0
 13 12  1  0  0  0  0
 14 17  1  0  0  0  0
 14 15  1  0  0  0  0
 15 63  1  0  0  0  0
 15 16  1  0  0  0  0
 16 65  1  0  0  0  0
 16 64  1  0  0  0  0
 17 18  1  0  0  0  0
 18 19  2  0  0  0  0
 19 20  1  0  0  0  0
 20 67  1  0  0  0  0
 20 68  1  0  0  0  0
 21 69  1  0  0  0  0
 21 19  1  0  0  0  0
 22 21  2  0  0  0  0
 23 22  1  0  0  0  0
 23 17  2  0  0  0  0
 25  8  1  0  0  0  0
 25 26  1  0  0  0  0
 26 34  2  0  0  0  0
 27 26  1  0  0  0  0
 27 28  1  0  0  0  0
 28 29  1  0  0  0  0
 29 74  1  0  0  0  0
 29 30  2  0  0  0  0
 30 75  1  0  0  0  0
 31 76  1  0  0  0  0
 31 30  1  0  0  0  0
 32 31  2  0  0  0  0
 33 32  1  0  0  0  0
 33 28  2  0  0  0  0
 35 79  1  0  0  0  0
 36 81  1  0  0  0  0
 36 37  1  0  0  0  0
 36 35  1  0  0  0  0
 38 83  1  0  0  0  0
 38 37  1  0  0  0  0
 39 38  1  0  0  0  0
 39 40  1  1  0  0  0
 41 39  1  0  0  0  0
 41 42  1  0  0  0  0
 42 44  2  0  0  0  0
 42 43  1  0  0  0  0
 43 86  1  0  0  0  0
 43 87  1  0  0  0  0
 45 39  1  0  0  0  0
 46 45  1  0  0  0  0
 46 88  1  0  0  0  0
 47 91  1  0  0  0  0
 47 46  1  0  0  0  0
 48 45  2  0  0  0  0
 49  3  1  0  0  0  0
 52  5  1  0  0  0  0
 53  5  1  0  0  0  0
 56  7  1  0  0  0  0
 57  7  1  0  0  0  0
 58 12  1  0  0  0  0
 60 13  1  0  0  0  0
 61 13  1  0  0  0  0
 62 15  1  0  0  0  0
 66 20  1  0  0  0  0
 70 22  1  0  0  0  0
 71 23  1  0  0  0  0
 72 25  1  0  0  0  0
 73 27  1  0  0  0  0
 77 32  1  0  0  0  0
 78 33  1  0  0  0  0
 80 36  1  0  0  0  0
 82 38  1  0  0  0  0
 84 41  1  0  0  0  0
 85 43  1  0  0  0  0
 89 47  1  0  0  0  0
 90 47  1  0  0  0  0
M  END
