-1 1
 OpenBabel05232413493D

 92 93  0  0  1  0  0  0  0  0999 V2000
   -1.6140    0.5824    3.8690 O   0  0  0  0  0  0  0  0  0  0  0  0
   -1.2847   -0.4523    3.3010 C   0  0  0  0  0  0  0  0  0  0  0  0
   -2.1096   -1.0801    2.4230 N   0  0  0  0  0  0  0  0  0  0  0  0
   -1.7375   -2.2053    1.5852 C   0  0  0  0  0  0  0  0  0  0  0  0
   -0.8332   -1.8592    0.3985 C   0  0  0  0  0  0  0  0  0  0  0  0
   -1.6097   -1.3535   -0.8168 C   0  0  0  0  0  0  0  0  0  0  0  0
   -0.7759   -0.6337   -1.8761 C   0  0  0  0  0  0  0  0  0  0  0  0
    0.4571   -1.3885   -2.4276 C   0  0  1  0  0  0  0  0  0  0  0  0
    0.7835   -0.8721   -3.3459 H   0  0  0  0  0  0  0  0  0  0  0  0
    1.6297   -1.4239   -1.4284 C   0  0  0  0  0  0  0  0  0  0  0  0
    2.1838   -0.2486   -1.0712 N   0  0  0  0  0  0  0  0  0  0  0  0
    3.0830   -0.1726    0.0696 C   0  0  0  0  0  0  0  0  0  0  0  0
    4.4448    0.3397   -0.3637 C   0  0  0  0  0  0  0  0  0  0  0  0
    4.3295    1.6013   -1.0806 N   0  0  0  0  0  0  0  0  0  0  0  0
    3.3344    1.6322   -2.1348 C   0  0  0  0  0  0  0  0  0  0  0  0
    1.9933    1.0544   -1.6879 C   0  0  0  0  0  0  0  0  0  0  0  0
    5.3833    2.4834   -1.0636 C   0  0  0  0  0  0  0  0  0  0  0  0
    6.3651    2.2391   -0.1878 N   0  0  0  0  0  0  0  0  0  0  0  0
    7.4036    3.0677   -0.0816 C   0  0  0  0  0  0  0  0  0  0  0  0
    8.4326    2.7008    0.9551 C   0  0  0  0  0  0  0  0  0  0  0  0
    7.5381    4.2058   -0.8753 C   0  0  0  0  0  0  0  0  0  0  0  0
    6.5327    4.4615   -1.8112 C   0  0  0  0  0  0  0  0  0  0  0  0
    5.4504    3.6098   -1.9255 C   0  0  0  0  0  0  0  0  0  0  0  0
    1.9848   -2.4987   -0.9492 O   0  0  0  0  0  0  0  0  0  0  0  0
    0.1771   -2.7669   -2.7448 N   0  0  0  0  0  0  0  0  0  0  0  0
   -0.7211   -3.1748   -3.6619 C   0  0  0  0  0  0  0  0  0  0  0  0
   -1.0618   -4.6660   -3.5646 C   0  0  0  0  0  0  0  0  0  0  0  0
   -2.0182   -4.8618   -2.4122 C   0  0  0  0  0  0  0  0  0  0  0  0
   -3.3591   -4.4939   -2.5625 C   0  0  0  0  0  0  0  0  0  0  0  0
   -4.2143   -4.5747   -1.4728 C   0  0  0  0  0  0  0  0  0  0  0  0
   -5.4937   -4.2274   -1.6279 F   0  0  0  0  0  0  0  0  0  0  0  0
   -3.7796   -5.0029   -0.2239 C   0  0  0  0  0  0  0  0  0  0  0  0
   -2.4423   -5.3645   -0.0788 C   0  0  0  0  0  0  0  0  0  0  0  0
   -1.5676   -5.2981   -1.1618 C   0  0  0  0  0  0  0  0  0  0  0  0
   -1.2789   -2.4387   -4.4565 O   0  0  0  0  0  0  0  0  0  0  0  0
    0.0698   -1.0501    3.5303 C   0  0  0  0  0  0  0  0  0  0  0  0
    1.1278   -0.2468    3.6474 C   0  0  0  0  0  0  0  0  0  0  0  0
    0.4410    2.6598    1.0872 S   0  0  0  0  0  1  0  0  0  0  0  0
   -1.1909    1.9586    0.6723 C   0  0  0  0  0  0  0  0  0  0  0  0
   -2.3935    2.7434    1.1966 C   0  0  2  0  0  0  0  0  0  0  0  0
   -2.4405    3.7187    0.6861 H   0  0  0  0  0  0  0  0  0  0  0  0
   -2.2988    3.0135    2.6166 N   0  0  0  0  0  0  0  0  0  0  0  0
   -2.8861    4.0636    3.2038 C   0  0  0  0  0  0  0  0  0  0  0  0
   -2.5347    4.2592    4.6635 C   0  0  0  0  0  0  0  0  0  0  0  0
   -3.6405    4.8417    2.6138 O   0  0  0  0  0  0  0  0  0  0  0  0
   -3.7262    2.0071    0.9600 C   0  0  0  0  0  0  0  0  0  0  0  0
   -4.7968    2.8346    0.9431 N   0  0  0  0  0  0  0  0  0  0  0  0
   -6.1482    2.3406    0.9244 C   0  0  0  0  0  0  0  0  0  0  0  0
   -3.8255    0.7877    0.8404 O   0  0  0  0  0  0  0  0  0  0  0  0
   -2.8767   -0.4903    2.0852 H   0  0  0  0  0  0  0  0  0  0  0  0
   -2.6698   -2.6615    1.2171 H   0  0  0  0  0  0  0  0  0  0  0  0
   -1.2578   -2.9725    2.2120 H   0  0  0  0  0  0  0  0  0  0  0  0
   -0.2498   -2.7511    0.1261 H   0  0  0  0  0  0  0  0  0  0  0  0
   -0.0991   -1.1042    0.7281 H   0  0  0  0  0  0  0  0  0  0  0  0
   -2.3845   -0.6444   -0.4814 H   0  0  0  0  0  0  0  0  0  0  0  0
   -2.1455   -2.2046   -1.2720 H   0  0  0  0  0  0  0  0  0  0  0  0
   -0.4383    0.3251   -1.4600 H   0  0  0  0  0  0  0  0  0  0  0  0
   -1.4238   -0.4012   -2.7337 H   0  0  0  0  0  0  0  0  0  0  0  0
    3.1731   -1.1733    0.5062 H   0  0  0  0  0  0  0  0  0  0  0  0
    2.6237    0.5167    0.8007 H   0  0  0  0  0  0  0  0  0  0  0  0
    4.9380   -0.4177   -1.0072 H   0  0  0  0  0  0  0  0  0  0  0  0
    5.0887    0.5013    0.5067 H   0  0  0  0  0  0  0  0  0  0  0  0
    3.7061    1.0866   -3.0287 H   0  0  0  0  0  0  0  0  0  0  0  0
    3.1383    2.6693   -2.4314 H   0  0  0  0  0  0  0  0  0  0  0  0
    1.3429    0.9858   -2.5665 H   0  0  0  0  0  0  0  0  0  0  0  0
    1.5164    1.7248   -0.9400 H   0  0  0  0  0  0  0  0  0  0  0  0
    8.8016    1.6800    0.7749 H   0  0  0  0  0  0  0  0  0  0  0  0
    7.9745    2.7063    1.9557 H   0  0  0  0  0  0  0  0  0  0  0  0
    9.2846    3.3948    0.9529 H   0  0  0  0  0  0  0  0  0  0  0  0
    8.4000    4.8663   -0.7691 H   0  0  0  0  0  0  0  0  0  0  0  0
    6.5962    5.3377   -2.4618 H   0  0  0  0  0  0  0  0  0  0  0  0
    4.6752    3.8181   -2.6592 H   0  0  0  0  0  0  0  0  0  0  0  0
    0.6276   -3.4181   -2.1049 H   0  0  0  0  0  0  0  0  0  0  0  0
   -0.1505   -5.2634   -3.4123 H   0  0  0  0  0  0  0  0  0  0  0  0
   -1.5217   -4.9581   -4.5172 H   0  0  0  0  0  0  0  0  0  0  0  0
   -3.7330   -4.1149   -3.5154 H   0  0  0  0  0  0  0  0  0  0  0  0
   -4.4827   -5.0384    0.6093 H   0  0  0  0  0  0  0  0  0  0  0  0
   -2.0764   -5.6928    0.8962 H   0  0  0  0  0  0  0  0  0  0  0  0
   -0.5185   -5.5736   -1.0289 H   0  0  0  0  0  0  0  0  0  0  0  0
    0.1863   -2.1377    3.5430 H   0  0  0  0  0  0  0  0  0  0  0  0
    1.0150    0.8389    3.5510 H   0  0  0  0  0  0  0  0  0  0  0  0
    2.1336   -0.6550    3.7788 H   0  0  0  0  0  0  0  0  0  0  0  0
   -1.2739    0.9265    1.0389 H   0  0  0  0  0  0  0  0  0  0  0  0
   -1.3319    1.8997   -0.4206 H   0  0  0  0  0  0  0  0  0  0  0  0
   -1.7657    2.3394    3.1669 H   0  0  0  0  0  0  0  0  0  0  0  0
   -2.2253    3.3202    5.1427 H   0  0  0  0  0  0  0  0  0  0  0  0
   -3.3972    4.6903    5.1878 H   0  0  0  0  0  0  0  0  0  0  0  0
   -1.6985    4.9718    4.7265 H   0  0  0  0  0  0  0  0  0  0  0  0
   -4.6118    3.7838    1.2823 H   0  0  0  0  0  0  0  0  0  0  0  0
   -6.1306    1.2993    0.5782 H   0  0  0  0  0  0  0  0  0  0  0  0
   -6.7728    2.9368    0.2414 H   0  0  0  0  0  0  0  0  0  0  0  0
   -6.6101    2.3646    1.9266 H   0  0  0  0  0  0  0  0  0  0  0  0
  2 36  1  0  0  0  0
  2  1  2  0  0  0  0
  3  2  1  0  0  0  0
  4 52  1  0  0  0  0
  4  3  1  0  0  0  0
  5 54  1  0  0  0  0
  5  4  1  0  0  0  0
  6 55  1  0  0  0  0
  6  5  1  0  0  0  0
  7 57  1  0  0  0  0
  7  6  1  0  0  0  0
  8  9  1  6  0  0  0
  8  7  1  0  0  0  0
  8 10  1  0  0  0  0
 10 11  1  0  0  0  0
 10 24  2  0  0  0  0
 11 12  1  0  0  0  0
 12 59  1  0  0  0  0
 12 60  1  0  0  0  0
 13 12  1  0  0  0  0
 13 62  1  0  0  0  0
 14 17  1  0  0  0  0
 14 13  1  0  0  0  0
 15 16  1  0  0  0  0
 15 14  1  0  0  0  0
 16 11  1  0  0  0  0
 16 66  1  0  0  0  0
 17 18  1  0  0  0  0
 18 19  2  0  0  0  0
 19 20  1  0  0  0  0
 20 68  1  0  0  0  0
 21 70  1  0  0  0  0
 21 19  1  0  0  0  0
 22 21  2  0  0  0  0
 23 22  1  0  0  0  0
 23 17  2  0  0  0  0
 25  8  1  0  0  0  0
 25 73  1  0  0  0  0
 26 27  1  0  0  0  0
 26 25  1  0  0  0  0
 27 74  1  0  0  0  0
 27 28  1  0  0  0  0
 28 34  1  0  0  0  0
 29 28  2  0  0  0  0
 29 30  1  0  0  0  0
 30 32  2  0  0  0  0
 31 30  1  0  0  0  0
 32 33  1  0  0  0  0
 32 77  1  0  0  0  0
 33 78  1  0  0  0  0
 34 79  1  0  0  0  0
 34 33  2  0  0  0  0
 35 26  2  0  0  0  0
 36 80  1  0  0  0  0
 36 37  2  0  0  0  0
 37 82  1  0  0  0  0
 39 83  1  0  0  0  0
 39 38  1  0  0  0  0
 39 40  1  0  0  0  0
 40 41  1  6  0  0  0
 40 42  1  0  0  0  0
 42 85  1  0  0  0  0
 42 43  1  0  0  0  0
 43 44  1  0  0  0  0
 44 88  1  0  0  0  0
 44 86  1  0  0  0  0
 44 87  1  0  0  0  0
 45 43  2  0  0  0  0
 46 40  1  0  0  0  0
 47 46  1  0  0  0  0
 47 89  1  0  0  0  0
 48 47  1  0  0  0  0
 48 92  1  0  0  0  0
 49 46  2  0  0  0  0
 50  3  1  0  0  0  0
 51  4  1  0  0  0  0
 53  5  1  0  0  0  0
 56  6  1  0  0  0  0
 58  7  1  0  0  0  0
 61 13  1  0  0  0  0
 63 15  1  0  0  0  0
 64 15  1  0  0  0  0
 65 16  1  0  0  0  0
 67 20  1  0  0  0  0
 69 20  1  0  0  0  0
 71 22  1  0  0  0  0
 72 23  1  0  0  0  0
 75 27  1  0  0  0  0
 76 29  1  0  0  0  0
 81 37  1  0  0  0  0
 84 39  1  0  0  0  0
 90 48  1  0  0  0  0
 91 48  1  0  0  0  0
M  END
