92
-1 1
O         2.518117   11.100144   -6.134370
C         3.623880   10.566686   -6.392066
N         3.583017    9.540194   -7.318061
C         4.624345    8.679620   -7.813717
C         5.347206    9.188859   -9.066670
C         4.400947    9.442539  -10.239023
C         4.955819   10.322986  -11.357290
C         6.211127    9.799966  -12.090616
H         6.393558   10.460713  -12.955469
C         7.485545    9.753269  -11.225241
N         8.003791   10.917021  -10.777230
C         9.135023   10.913456   -9.862572
C        10.341577   11.562105  -10.520154
N        10.019405   12.886945  -11.035118
C         8.814296   12.967877  -11.835365
C         7.637291   12.265380  -11.162313
C        11.019677   13.825876  -11.149881
N        12.166583   13.567558  -10.512503
C        13.170464   14.443940  -10.536197
C        14.403730   14.051773   -9.766615
C        13.092154   15.651860  -11.228531
C        11.910452   15.923821  -11.920986
C        10.863849   15.020186  -11.900118
O         7.981533    8.666830  -10.940267
N         6.030998    8.448973  -12.566445
C         5.100441    8.065363  -13.463220
C         4.876169    6.548861  -13.497065
C         4.091373    6.162008  -12.265516
C         2.727544    6.465056  -12.198810
C         2.032591    6.224760  -11.021856
F         0.730965    6.514765  -10.969682
C         2.651104    5.698826   -9.893599
C         4.009369    5.398641   -9.965469
C         4.724594    5.622483  -11.140841
O         4.436133    8.830156  -14.139328
C         4.828319   11.011787   -5.746895
C         6.153429   11.017550   -6.197215
S         6.645634   12.786742   -7.546737
C         5.097864   12.832832   -8.485490
C         4.152528   13.991565   -8.179143
H         4.739588   14.907272   -7.995996
N         3.370916   13.742632   -6.981611
C         2.908656   14.718313   -6.181807
C         2.287584   14.235143   -4.889476
O         2.985145   15.917857   -6.458642
C         3.235563   14.290487   -9.387735
N         2.480479   15.403838   -9.215167
C         1.505045   15.833557  -10.178445
O         3.211752   13.606308  -10.399146
H         2.652286    9.432825   -7.699987
H         4.168401    7.701249   -8.047595
H         5.349102    8.497752   -7.004986
H         6.114917    8.450633   -9.345185
H         5.884980   10.121099   -8.827900
H         3.504664    9.961803   -9.862831
H         4.050972    8.479953  -10.649340
H         5.144977   11.326929  -10.953648
H         4.180455   10.451419  -12.126342
H         9.360073    9.875497   -9.595618
H         8.830802   11.471068   -8.960293
H        10.703464   10.915410  -11.345531
H        11.159971   11.667766   -9.800955
H         8.982401   12.531872  -12.842918
H         8.523653   14.016570  -11.969680
H         6.782313   12.272597  -11.845664
H         7.356742   12.810382  -10.244457
H        14.777125   13.080414  -10.123698
H        14.157723   13.930708   -8.700839
H        15.203327   14.799164   -9.862413
H        13.929182   16.351591  -11.232850
H        11.806356   16.851810  -12.489042
H         9.952920   15.238207  -12.453134
H         6.565786    7.768288  -12.031553
H         5.838307    6.015465  -13.522771
H         4.320021    6.322056  -14.415383
H         2.211380    6.919610  -13.046543
H         2.070833    5.541248   -8.983451
H         4.518223    4.993623   -9.088350
H         5.792885    5.395202  -11.175942
H         4.596363   11.705789   -4.933885
H         6.515014   10.271212   -6.903111
H         6.915742   11.306775   -5.469807
H         4.553303   11.887283   -8.329730
H         5.321704   12.876888   -9.558474
H         3.132112   12.774861   -6.727265
H         2.143118   13.145460   -4.889452
H         1.335211   14.759476   -4.730161
H         2.962403   14.511766   -4.065336
H         2.576590   15.887677   -8.317008
H         1.558463   15.156194  -11.040955
H         1.702194   16.862280  -10.523801
H         0.482005   15.800203   -9.766888
