-1 1
 OpenBabel05192410563D

 92 94  0  0  1  0  0  0  0  0999 V2000
   -3.3041   -0.0249    3.8290 O   0  0  0  0  0  0  0  0  0  0  0  0
   -2.1863   -0.5037    3.4658 C   0  0  0  0  0  0  0  0  0  0  0  0
   -2.2937   -1.4197    2.4037 N   0  0  0  0  0  0  0  0  0  0  0  0
   -1.3577   -2.4242    1.9758 C   0  0  0  0  0  0  0  0  0  0  0  0
   -0.6055   -2.0653    0.6871 C   0  0  0  0  0  0  0  0  0  0  0  0
   -1.5420   -1.8000   -0.4908 C   0  0  0  0  0  0  0  0  0  0  0  0
   -0.9651   -0.9333   -1.6085 C   0  0  0  0  0  0  0  0  0  0  0  0
    0.2975   -1.4753   -2.3173 C   0  0  1  0  0  0  0  0  0  0  0  0
    0.4925   -0.8356   -3.1953 H   0  0  0  0  0  0  0  0  0  0  0  0
    1.5588   -1.5030   -1.4336 C   0  0  0  0  0  0  0  0  0  0  0  0
    2.0681   -0.3259   -1.0002 N   0  0  0  0  0  0  0  0  0  0  0  0
    3.1781   -0.3099   -0.0603 C   0  0  0  0  0  0  0  0  0  0  0  0
    4.3966    0.3387   -0.6955 C   0  0  0  0  0  0  0  0  0  0  0  0
    4.0763    1.6549   -1.2330 N   0  0  0  0  0  0  0  0  0  0  0  0
    2.9035    1.7042   -2.0811 C   0  0  0  0  0  0  0  0  0  0  0  0
    1.7083    1.0085   -1.4325 C   0  0  0  0  0  0  0  0  0  0  0  0
    5.0657    2.6104   -1.3155 C   0  0  0  0  0  0  0  0  0  0  0  0
    6.1846    2.3804   -0.6211 N   0  0  0  0  0  0  0  0  0  0  0  0
    7.1740    3.2735   -0.6094 C   0  0  0  0  0  0  0  0  0  0  0  0
    8.3760    2.9128    0.2223 C   0  0  0  0  0  0  0  0  0  0  0  0
    7.1076    4.4710   -1.3210 C   0  0  0  0  0  0  0  0  0  0  0  0
    5.9558    4.7134   -2.0719 C   0  0  0  0  0  0  0  0  0  0  0  0
    4.9248    3.7915   -2.0882 C   0  0  0  0  0  0  0  0  0  0  0  0
    2.0548   -2.5789   -1.1184 O   0  0  0  0  0  0  0  0  0  0  0  0
    0.1213   -2.8355   -2.7658 N   0  0  0  0  0  0  0  0  0  0  0  0
   -0.7955   -3.2339   -3.6713 C   0  0  0  0  0  0  0  0  0  0  0  0
   -1.0289   -4.7495   -3.6749 C   0  0  0  0  0  0  0  0  0  0  0  0
   -1.8226   -5.1075   -2.4403 C   0  0  0  0  0  0  0  0  0  0  0  0
   -3.1922   -4.8272   -2.3999 C   0  0  0  0  0  0  0  0  0  0  0  0
   -3.8954   -5.0320   -1.2210 C   0  0  0  0  0  0  0  0  0  0  0  0
   -5.2027   -4.7647   -1.1948 F   0  0  0  0  0  0  0  0  0  0  0  0
   -3.2795   -5.4982   -0.0656 C   0  0  0  0  0  0  0  0  0  0  0  0
   -1.9157   -5.7773   -0.1115 C   0  0  0  0  0  0  0  0  0  0  0  0
   -1.1927   -5.5911   -1.2885 C   0  0  0  0  0  0  0  0  0  0  0  0
   -1.4382   -2.4792   -4.3786 O   0  0  0  0  0  0  0  0  0  0  0  0
   -0.9633   -0.1069    4.0282 C   0  0  0  0  0  3  0  0  0  0  0  0
    0.3535   -0.0447    3.3990 C   0  0  0  0  0  0  0  0  0  0  0  0
    0.6770    1.5382    2.3159 S   0  0  0  0  0  0  0  0  0  0  0  0
   -0.8452    1.6297    1.3283 C   0  0  0  0  0  0  0  0  0  0  0  0
   -1.7915    2.7771    1.6689 C   0  0  2  0  0  0  0  0  0  0  0  0
   -1.2058    3.6950    1.8523 H   0  0  0  0  0  0  0  0  0  0  0  0
   -2.5610    2.5270    2.8716 N   0  0  0  0  0  0  0  0  0  0  0  0
   -2.9895    3.5161    3.6729 C   0  0  0  0  0  0  0  0  0  0  0  0
   -3.5885    3.0550    4.9824 C   0  0  0  0  0  0  0  0  0  0  0  0
   -2.9020    4.7134    3.3805 O   0  0  0  0  0  0  0  0  0  0  0  0
   -2.7060    3.0874    0.4609 C   0  0  0  0  0  0  0  0  0  0  0  0
   -3.4750    4.1868    0.6499 N   0  0  0  0  0  0  0  0  0  0  0  0
   -4.4470    4.6256   -0.3128 C   0  0  0  0  0  0  0  0  0  0  0  0
   -2.7098    2.4221   -0.5636 O   0  0  0  0  0  0  0  0  0  0  0  0
   -3.2706   -1.5698    2.1894 H   0  0  0  0  0  0  0  0  0  0  0  0
   -1.9029   -3.3710    1.8048 H   0  0  0  0  0  0  0  0  0  0  0  0
   -0.6407   -2.6218    2.7902 H   0  0  0  0  0  0  0  0  0  0  0  0
    0.1043   -2.8723    0.4461 H   0  0  0  0  0  0  0  0  0  0  0  0
    0.0021   -1.1639    0.8690 H   0  0  0  0  0  0  0  0  0  0  0  0
   -2.4264   -1.2621   -0.1137 H   0  0  0  0  0  0  0  0  0  0  0  0
   -1.9097   -2.7559   -0.8996 H   0  0  0  0  0  0  0  0  0  0  0  0
   -0.7707    0.0720   -1.2082 H   0  0  0  0  0  0  0  0  0  0  0  0
   -1.7272   -0.8032   -2.3906 H   0  0  0  0  0  0  0  0  0  0  0  0
    3.4016   -1.3431    0.2256 H   0  0  0  0  0  0  0  0  0  0  0  0
    2.8549    0.2567    0.8298 H   0  0  0  0  0  0  0  0  0  0  0  0
    4.7812   -0.3146   -1.5051 H   0  0  0  0  0  0  0  0  0  0  0  0
    5.1966    0.4588    0.0418 H   0  0  0  0  0  0  0  0  0  0  0  0
    3.1115    1.2392   -3.0678 H   0  0  0  0  0  0  0  0  0  0  0  0
    2.6104    2.7457   -2.2583 H   0  0  0  0  0  0  0  0  0  0  0  0
    0.8780    0.9912   -2.1454 H   0  0  0  0  0  0  0  0  0  0  0  0
    1.3885    1.5807   -0.5458 H   0  0  0  0  0  0  0  0  0  0  0  0
    8.7827    1.9442   -0.1045 H   0  0  0  0  0  0  0  0  0  0  0  0
    8.0820    2.8000    1.2767 H   0  0  0  0  0  0  0  0  0  0  0  0
    9.1660    3.6732    0.1547 H   0  0  0  0  0  0  0  0  0  0  0  0
    7.9317    5.1853   -1.2953 H   0  0  0  0  0  0  0  0  0  0  0  0
    5.8633    5.6319   -2.6571 H   0  0  0  0  0  0  0  0  0  0  0  0
    4.0382    3.9861   -2.6878 H   0  0  0  0  0  0  0  0  0  0  0  0
    0.6340   -3.5085   -2.2013 H   0  0  0  0  0  0  0  0  0  0  0  0
   -0.0687   -5.2872   -3.6839 H   0  0  0  0  0  0  0  0  0  0  0  0
   -1.5799   -4.9921   -4.5921 H   0  0  0  0  0  0  0  0  0  0  0  0
   -3.7079   -4.4172   -3.2703 H   0  0  0  0  0  0  0  0  0  0  0  0
   -3.8657   -5.6256    0.8454 H   0  0  0  0  0  0  0  0  0  0  0  0
   -1.4088   -6.1337    0.7874 H   0  0  0  0  0  0  0  0  0  0  0  0
   -0.1203   -5.8015   -1.3032 H   0  0  0  0  0  0  0  0  0  0  0  0
   -1.1080    0.5871    4.8618 H   0  0  0  0  0  0  0  0  0  0  0  0
    0.6129   -0.8730    2.7317 H   0  0  0  0  0  0  0  0  0  0  0  0
    1.1731    0.0644    4.1251 H   0  0  0  0  0  0  0  0  0  0  0  0
   -1.3766    0.6710    1.4070 H   0  0  0  0  0  0  0  0  0  0  0  0
   -0.5649    1.7445    0.2742 H   0  0  0  0  0  0  0  0  0  0  0  0
   -2.8045    1.5579    3.1533 H   0  0  0  0  0  0  0  0  0  0  0  0
   -3.6779    1.9597    5.0202 H   0  0  0  0  0  0  0  0  0  0  0  0
   -4.5654    3.5393    5.1219 H   0  0  0  0  0  0  0  0  0  0  0  0
   -2.9292    3.3992    5.7935 H   0  0  0  0  0  0  0  0  0  0  0  0
   -3.3766    4.6641    1.5522 H   0  0  0  0  0  0  0  0  0  0  0  0
   -4.3905    3.9574   -1.1823 H   0  0  0  0  0  0  0  0  0  0  0  0
   -4.2495    5.6580   -0.6471 H   0  0  0  0  0  0  0  0  0  0  0  0
   -5.4709    4.5874    0.0956 H   0  0  0  0  0  0  0  0  0  0  0  0
  2  1  2  0  0  0  0
  2 36  1  0  0  0  0
  3  2  1  0  0  0  0
  4  3  1  0  0  0  0
  4 52  1  0  0  0  0
  5 54  1  0  0  0  0
  5  4  1  0  0  0  0
  6 55  1  0  0  0  0
  6  5  1  0  0  0  0
  7 57  1  0  0  0  0
  7  6  1  0  0  0  0
  8  9  1  6  0  0  0
  8  7  1  0  0  0  0
  8 10  1  0  0  0  0
 10 24  2  0  0  0  0
 10 11  1  0  0  0  0
 11 12  1  0  0  0  0
 12 59  1  0  0  0  0
 12 60  1  0  0  0  0
 13 12  1  0  0  0  0
 13 62  1  0  0  0  0
 14 13  1  0  0  0  0
 15 16  1  0  0  0  0
 15 14  1  0  0  0  0
 16 11  1  0  0  0  0
 16 66  1  0  0  0  0
 17 14  1  0  0  0  0
 17 18  1  0  0  0  0
 18 19  2  0  0  0  0
 19 20  1  0  0  0  0
 20 68  1  0  0  0  0
 21 70  1  0  0  0  0
 21 19  1  0  0  0  0
 22 21  2  0  0  0  0
 23 22  1  0  0  0  0
 23 17  2  0  0  0  0
 25  8  1  0  0  0  0
 25 73  1  0  0  0  0
 26 25  1  0  0  0  0
 27 26  1  0  0  0  0
 27 28  1  0  0  0  0
 28 29  2  0  0  0  0
 28 34  1  0  0  0  0
 29 30  1  0  0  0  0
 30 31  1  0  0  0  0
 30 32  2  0  0  0  0
 32 77  1  0  0  0  0
 33 32  1  0  0  0  0
 33 78  1  0  0  0  0
 34 33  2  0  0  0  0
 35 26  2  0  0  0  0
 36 80  1  0  0  0  0
 37 36  1  0  0  0  0
 37 82  1  0  0  0  0
 38 37  1  0  0  0  0
 39 83  1  0  0  0  0
 39 40  1  0  0  0  0
 39 38  1  0  0  0  0
 40 41  1  1  0  0  0
 40 42  1  0  0  0  0
 42 85  1  0  0  0  0
 42 43  1  0  0  0  0
 43 44  1  0  0  0  0
 44 86  1  0  0  0  0
 44 87  1  0  0  0  0
 44 88  1  0  0  0  0
 45 43  2  0  0  0  0
 46 47  1  0  0  0  0
 46 40  1  0  0  0  0
 47 89  1  0  0  0  0
 48 92  1  0  0  0  0
 48 47  1  0  0  0  0
 49 46  2  0  0  0  0
 50  3  1  0  0  0  0
 51  4  1  0  0  0  0
 53  5  1  0  0  0  0
 56  6  1  0  0  0  0
 58  7  1  0  0  0  0
 61 13  1  0  0  0  0
 63 15  1  0  0  0  0
 64 15  1  0  0  0  0
 65 16  1  0  0  0  0
 67 20  1  0  0  0  0
 69 20  1  0  0  0  0
 71 22  1  0  0  0  0
 72 23  1  0  0  0  0
 74 27  1  0  0  0  0
 75 27  1  0  0  0  0
 76 29  1  0  0  0  0
 79 34  1  0  0  0  0
 81 37  1  0  0  0  0
 84 39  1  0  0  0  0
 90 48  1  0  0  0  0
 91 48  1  0  0  0  0
M  END
