92
-1 1
O        -3.304102   -0.024874    3.829009
C        -2.186253   -0.503733    3.465849
N        -2.293669   -1.419725    2.403715
C        -1.357663   -2.424223    1.975836
C        -0.605485   -2.065313    0.687072
C        -1.541998   -1.799953   -0.490802
C        -0.965058   -0.933336   -1.608523
C         0.297487   -1.475261   -2.317290
H         0.492538   -0.835642   -3.195265
C         1.558847   -1.502989   -1.433566
N         2.068080   -0.325874   -1.000235
C         3.178124   -0.309891   -0.060331
C         4.396620    0.338694   -0.695483
N         4.076313    1.654948   -1.232971
C         2.903528    1.704175   -2.081058
C         1.708326    1.008516   -1.432484
C         5.065707    2.610359   -1.315518
N         6.184640    2.380402   -0.621111
C         7.174043    3.273468   -0.609409
C         8.375953    2.912781    0.222285
C         7.107576    4.471020   -1.320987
C         5.955839    4.713363   -2.071925
C         4.924779    3.791469   -2.088246
O         2.054810   -2.578891   -1.118450
N         0.121287   -2.835491   -2.765818
C        -0.795462   -3.233878   -3.671296
C        -1.028878   -4.749490   -3.674879
C        -1.822626   -5.107492   -2.440251
C        -3.192159   -4.827202   -2.399891
C        -3.895414   -5.032019   -1.220994
F        -5.202671   -4.764689   -1.194787
C        -3.279513   -5.498236   -0.065581
C        -1.915715   -5.777265   -0.111532
C        -1.192665   -5.591115   -1.288522
O        -1.438188   -2.479224   -4.378590
C        -0.963326   -0.106923    4.028157
C         0.353539   -0.044697    3.399021
S         0.676950    1.538162    2.315882
C        -0.845201    1.629696    1.328325
C        -1.791460    2.777134    1.668907
H        -1.205798    3.695014    1.852293
N        -2.561039    2.527027    2.871612
C        -2.989549    3.516128    3.672893
C        -3.588488    3.055035    4.982440
O        -2.901968    4.713400    3.380481
C        -2.705979    3.087410    0.460929
N        -3.475008    4.186837    0.649850
C        -4.446996    4.625591   -0.312841
O        -2.709780    2.422138   -0.563590
H        -3.270641   -1.569762    2.189441
H        -1.902858   -3.370991    1.804834
H        -0.640665   -2.621763    2.790165
H         0.104302   -2.872282    0.446097
H         0.002063   -1.163907    0.868982
H        -2.426450   -1.262070   -0.113669
H        -1.909713   -2.755922   -0.899584
H        -0.770690    0.072010   -1.208204
H        -1.727233   -0.803222   -2.390568
H         3.401589   -1.343120    0.225600
H         2.854924    0.256667    0.829760
H         4.781177   -0.314566   -1.505078
H         5.196597    0.458848    0.041846
H         3.111488    1.239212   -3.067750
H         2.610447    2.745706   -2.258268
H         0.878021    0.991248   -2.145378
H         1.388455    1.580705   -0.545848
H         8.782688    1.944162   -0.104453
H         8.081960    2.800002    1.276717
H         9.165991    3.673201    0.154688
H         7.931748    5.185343   -1.295328
H         5.863260    5.631863   -2.657063
H         4.038198    3.986071   -2.687753
H         0.634046   -3.508472   -2.201281
H        -0.068728   -5.287237   -3.683861
H        -1.579908   -4.992076   -4.592147
H        -3.707872   -4.417182   -3.270275
H        -3.865745   -5.625647    0.845390
H        -1.408815   -6.133684    0.787429
H        -0.120336   -5.801475   -1.303162
H        -1.107998    0.587097    4.861850
H         0.612886   -0.872968    2.731726
H         1.173126    0.064428    4.125146
H        -1.376629    0.671018    1.407003
H        -0.564852    1.744514    0.274245
H        -2.804458    1.557942    3.153335
H        -3.677945    1.959659    5.020157
H        -4.565417    3.539340    5.121943
H        -2.929193    3.399151    5.793491
H        -3.376632    4.664118    1.552226
H        -4.390472    3.957418   -1.182274
H        -4.249499    5.657965   -0.647100
H        -5.470892    4.587388    0.095635
