-1 1
 OpenBabel05232414493D

 76 78  0  0  1  0  0  0  0  0999 V2000
   14.0111  -13.1205  -13.1196 C   0  0  0  0  0  0  0  0  0  0  0  0
   15.3272  -12.8233  -13.4803 O   0  0  0  0  0  0  0  0  0  0  0  0
   15.7554  -11.5320  -13.1512 C   0  0  0  0  0  0  0  0  0  0  0  0
   16.0539  -11.3483  -11.6668 C   0  0  0  0  0  0  0  0  0  0  0  0
   16.8288  -10.1722  -11.5203 O   0  0  0  0  0  0  0  0  0  0  0  0
   16.4825   -9.2716  -10.5686 C   0  0  0  0  0  0  0  0  0  0  0  0
   17.4015   -8.9082   -9.6146 C   0  0  0  0  0  0  0  0  0  0  0  0
   15.2090   -8.6189  -10.6133 C   0  0  0  0  0  0  0  0  0  0  0  0
   14.3940   -8.9688  -11.6341 O   0  0  0  0  0  0  0  0  0  0  0  0
   13.2804   -8.1497  -11.9206 C   0  0  0  0  0  0  0  0  0  0  0  0
   14.8972   -7.6803   -9.6569 C   0  0  0  0  0  0  0  0  0  0  0  0
   15.8121   -7.3495   -8.6240 C   0  0  0  0  0  0  0  0  0  0  0  0
   17.1056   -7.9212   -8.6400 C   0  0  0  0  0  0  0  0  0  0  0  0
   18.0811   -7.5425   -7.7627 N   0  0  0  0  0  0  0  0  0  0  0  0
   17.7423   -6.6183   -6.9070 C   0  0  0  0  0  0  0  0  0  0  0  0
   16.5289   -6.0620   -6.7291 N   0  0  0  0  0  0  0  0  0  0  0  0
   15.5403   -6.4453   -7.5288 C   0  0  0  0  0  0  0  0  0  0  0  0
   14.3000   -5.9320   -7.2799 N   0  0  0  0  0  0  0  0  0  0  0  0
   13.1375   -6.7363   -7.4303 C   0  0  0  0  0  0  0  0  0  0  0  0
   12.1566   -6.4511   -8.3016 C   0  0  0  0  0  0  0  0  0  0  0  0
   11.0681   -7.4035   -8.6616 C   0  0  0  0  0  0  0  0  0  0  0  0
   10.3907   -7.1956   -9.6743 O   0  0  0  0  0  0  0  0  0  0  0  0
   11.0018   -8.5753   -7.8486 C   0  0  2  0  0  3  0  0  0  0  0  0
   11.8588   -8.7967   -6.7752 C   0  0  0  0  0  3  0  0  0  0  0  0
   11.1809   -7.6235   -4.9011 S   0  0  0  0  0  1  0  0  0  0  0  0
   12.4081   -7.8761   -3.5910 C   0  0  0  0  0  0  0  0  0  0  0  0
   13.0218   -6.5712   -3.0205 C   0  0  2  0  0  0  0  0  0  0  0  0
   13.5352   -6.8358   -2.0827 H   0  0  0  0  0  0  0  0  0  0  0  0
   12.0188   -5.5922   -2.6949 N   0  0  0  0  0  0  0  0  0  0  0  0
   11.2904   -5.6505   -1.5560 C   0  0  0  0  0  0  0  0  0  0  0  0
   10.1443   -4.6599   -1.4802 C   0  0  0  0  0  0  0  0  0  0  0  0
   11.5166   -6.4500   -0.6623 O   0  0  0  0  0  0  0  0  0  0  0  0
   14.0055   -5.9163   -3.9876 C   0  0  0  0  0  0  0  0  0  0  0  0
   15.2541   -6.4105   -4.0721 N   0  0  0  0  0  0  0  0  0  0  0  0
   15.7567   -7.6450   -3.5181 C   0  0  0  0  0  0  0  0  0  0  0  0
   13.6493   -4.9553   -4.6705 O   0  0  0  0  0  0  0  0  0  0  0  0
   13.1120   -8.0229   -6.6694 C   0  0  0  0  0  0  0  0  0  0  0  0
   14.1028   -8.4390   -6.0824 O   0  0  0  0  0  0  0  0  0  0  0  0
   10.0455   -9.5306   -8.1605 O   0  0  0  0  0  0  0  0  0  0  0  0
   10.3050  -10.3340   -9.2147 C   0  0  0  0  0  0  0  0  0  0  0  0
    9.2658  -11.1606   -9.6626 C   0  0  0  0  0  0  0  0  0  0  0  0
    9.4692  -12.0202  -10.7371 C   0  0  0  0  0  0  0  0  0  0  0  0
   10.7042  -12.0702  -11.3892 C   0  0  0  0  0  0  0  0  0  0  0  0
   11.7358  -11.2499  -10.9363 C   0  0  0  0  0  0  0  0  0  0  0  0
   11.5502  -10.3966   -9.8524 C   0  0  0  0  0  0  0  0  0  0  0  0
   13.7569  -14.0964  -13.5565 H   0  0  0  0  0  0  0  0  0  0  0  0
   13.2982  -12.3667  -13.5085 H   0  0  0  0  0  0  0  0  0  0  0  0
   13.8661  -13.1886  -12.0252 H   0  0  0  0  0  0  0  0  0  0  0  0
   15.0243  -10.7640  -13.4687 H   0  0  0  0  0  0  0  0  0  0  0  0
   16.6911  -11.3552  -13.7023 H   0  0  0  0  0  0  0  0  0  0  0  0
   16.6404  -12.2118  -11.3068 H   0  0  0  0  0  0  0  0  0  0  0  0
   15.1315  -11.2887  -11.0683 H   0  0  0  0  0  0  0  0  0  0  0  0
   18.3887   -9.3704   -9.6127 H   0  0  0  0  0  0  0  0  0  0  0  0
   13.6021   -7.1135  -12.1218 H   0  0  0  0  0  0  0  0  0  0  0  0
   12.5299   -8.1414  -11.1142 H   0  0  0  0  0  0  0  0  0  0  0  0
   12.8129   -8.5693  -12.8192 H   0  0  0  0  0  0  0  0  0  0  0  0
   13.9376   -7.1798   -9.7001 H   0  0  0  0  0  0  0  0  0  0  0  0
   18.5230   -6.2613   -6.2228 H   0  0  0  0  0  0  0  0  0  0  0  0
   14.2590   -5.3283   -6.4467 H   0  0  0  0  0  0  0  0  0  0  0  0
   12.2065   -5.5428   -8.9077 H   0  0  0  0  0  0  0  0  0  0  0  0
   11.8915   -9.7920   -6.3301 H   0  0  0  0  0  0  0  0  0  0  0  0
   13.2072   -8.5189   -3.9982 H   0  0  0  0  0  0  0  0  0  0  0  0
   11.9369   -8.4118   -2.7541 H   0  0  0  0  0  0  0  0  0  0  0  0
   11.7847   -4.9577   -3.4513 H   0  0  0  0  0  0  0  0  0  0  0  0
    9.2381   -5.1458   -1.8729 H   0  0  0  0  0  0  0  0  0  0  0  0
   10.3293   -3.7501   -2.0684 H   0  0  0  0  0  0  0  0  0  0  0  0
    9.9679   -4.3990   -0.4294 H   0  0  0  0  0  0  0  0  0  0  0  0
   15.7882   -6.0383   -4.8676 H   0  0  0  0  0  0  0  0  0  0  0  0
   15.3065   -7.8536   -2.5384 H   0  0  0  0  0  0  0  0  0  0  0  0
   16.8426   -7.5543   -3.3707 H   0  0  0  0  0  0  0  0  0  0  0  0
   15.5589   -8.4934   -4.1913 H   0  0  0  0  0  0  0  0  0  0  0  0
    8.3024  -11.1003   -9.1532 H   0  0  0  0  0  0  0  0  0  0  0  0
    8.6465  -12.6554  -11.0760 H   0  0  0  0  0  0  0  0  0  0  0  0
   10.8563  -12.7374  -12.2409 H   0  0  0  0  0  0  0  0  0  0  0  0
   12.7088  -11.2525  -11.4323 H   0  0  0  0  0  0  0  0  0  0  0  0
   12.3692   -9.7683   -9.5020 H   0  0  0  0  0  0  0  0  0  0  0  0
  1 48  1  0  0  0  0
  2  3  1  0  0  0  0
  2  1  1  0  0  0  0
  3  4  1  0  0  0  0
  4  5  1  0  0  0  0
  4 51  1  0  0  0  0
  4 52  1  0  0  0  0
  5  6  1  0  0  0  0
  6  7  1  0  0  0  0
  7 53  1  0  0  0  0
  7 13  2  0  0  0  0
  8  6  2  0  0  0  0
  8 11  1  0  0  0  0
  9  8  1  0  0  0  0
 10  9  1  0  0  0  0
 10 55  1  0  0  0  0
 11 12  2  0  0  0  0
 12 17  1  0  0  0  0
 13 12  1  0  0  0  0
 13 14  1  0  0  0  0
 14 15  2  0  0  0  0
 15 16  1  0  0  0  0
 15 58  1  0  0  0  0
 17 18  1  0  0  0  0
 17 16  2  0  0  0  0
 18 59  1  0  0  0  0
 19 18  1  0  0  0  0
 19 37  1  0  0  0  0
 20 19  2  0  0  0  0
 21 20  1  0  0  0  0
 21 23  1  0  0  0  0
 22 21  2  0  0  0  0
 23 39  1  6  0  0  0
 23 24  1  0  0  0  0
 24 37  1  0  0  0  0
 24 61  1  0  0  0  0
 25 26  1  0  0  0  0
 26 27  1  0  0  0  0
 26 63  1  0  0  0  0
 27 29  1  0  0  0  0
 27 28  1  1  0  0  0
 29 30  1  0  0  0  0
 30 31  1  0  0  0  0
 30 32  2  0  0  0  0
 31 67  1  0  0  0  0
 33 27  1  0  0  0  0
 34 33  1  0  0  0  0
 34 35  1  0  0  0  0
 35 70  1  0  0  0  0
 35 69  1  0  0  0  0
 36 33  2  0  0  0  0
 37 38  2  0  0  0  0
 40 39  1  0  0  0  0
 41 40  1  0  0  0  0
 41 72  1  0  0  0  0
 42 41  2  0  0  0  0
 43 44  2  0  0  0  0
 43 42  1  0  0  0  0
 44 45  1  0  0  0  0
 45 76  1  0  0  0  0
 45 40  2  0  0  0  0
 46  1  1  0  0  0  0
 47  1  1  0  0  0  0
 49  3  1  0  0  0  0
 50  3  1  0  0  0  0
 54 10  1  0  0  0  0
 56 10  1  0  0  0  0
 57 11  1  0  0  0  0
 60 20  1  0  0  0  0
 62 26  1  0  0  0  0
 64 29  1  0  0  0  0
 65 31  1  0  0  0  0
 66 31  1  0  0  0  0
 68 34  1  0  0  0  0
 71 35  1  0  0  0  0
 73 42  1  0  0  0  0
 74 43  1  0  0  0  0
 75 44  1  0  0  0  0
M  END
