76
-1 1
C        14.011100  -13.120521  -13.119638
O        15.327243  -12.823333  -13.480289
C        15.755393  -11.531974  -13.151230
C        16.053904  -11.348273  -11.666759
O        16.828770  -10.172221  -11.520252
C        16.482530   -9.271642  -10.568590
C        17.401535   -8.908245   -9.614581
C        15.209025   -8.618914  -10.613291
O        14.393985   -8.968782  -11.634101
C        13.280378   -8.149675  -11.920578
C        14.897175   -7.680301   -9.656870
C        15.812141   -7.349492   -8.623997
C        17.105553   -7.921166   -8.640022
N        18.081125   -7.542526   -7.762725
C        17.742304   -6.618283   -6.907042
N        16.528871   -6.062046   -6.729122
C        15.540262   -6.445254   -7.528832
N        14.300034   -5.932030   -7.279936
C        13.137482   -6.736294   -7.430300
C        12.156569   -6.451079   -8.301634
C        11.068120   -7.403521   -8.661571
O        10.390718   -7.195647   -9.674278
C        11.001814   -8.575290   -7.848589
C        11.858777   -8.796682   -6.775178
S        11.180905   -7.623490   -4.901146
C        12.408106   -7.876141   -3.591042
C        13.021817   -6.571155   -3.020529
H        13.535249   -6.835752   -2.082749
N        12.018793   -5.592238   -2.694887
C        11.290419   -5.650508   -1.556027
C        10.144299   -4.659917   -1.480225
O        11.516581   -6.450039   -0.662304
C        14.005537   -5.916325   -3.987644
N        15.254055   -6.410520   -4.072138
C        15.756703   -7.644971   -3.518077
O        13.649251   -4.955279   -4.670469
C        13.112011   -8.022896   -6.669423
O        14.102842   -8.439019   -6.082362
O        10.045485   -9.530613   -8.160499
C        10.305046  -10.334040   -9.214654
C         9.265763  -11.160648   -9.662570
C         9.469152  -12.020155  -10.737081
C        10.704160  -12.070181  -11.389242
C        11.735768  -11.249944  -10.936273
C        11.550224  -10.396552   -9.852437
H        13.756945  -14.096406  -13.556495
H        13.298208  -12.366664  -13.508481
H        13.866080  -13.188563  -12.025235
H        15.024253  -10.764041  -13.468713
H        16.691054  -11.355219  -13.702328
H        16.640399  -12.211799  -11.306779
H        15.131506  -11.288709  -11.068263
H        18.388695   -9.370412   -9.612660
H        13.602063   -7.113468  -12.121758
H        12.529941   -8.141431  -11.114211
H        12.812918   -8.569299  -12.819212
H        13.937572   -7.179832   -9.700055
H        18.523008   -6.261308   -6.222773
H        14.259038   -5.328321   -6.446689
H        12.206524   -5.542835   -8.907692
H        11.891497   -9.792011   -6.330113
H        13.207169   -8.518927   -3.998183
H        11.936885   -8.411846   -2.754102
H        11.784707   -4.957707   -3.451319
H         9.238059   -5.145784   -1.872861
H        10.329286   -3.750112   -2.068390
H         9.967851   -4.399025   -0.429413
H        15.788162   -6.038281   -4.867645
H        15.306525   -7.853645   -2.538360
H        16.842562   -7.554308   -3.370705
H        15.558878   -8.493440   -4.191324
H         8.302369  -11.100276   -9.153216
H         8.646498  -12.655370  -11.076016
H        10.856347  -12.737430  -12.240940
H        12.708818  -11.252494  -11.432336
H        12.369167   -9.768269   -9.501986
