-1 1
 OpenBabel05192410563D

 91 93  0  0  1  0  0  0  0  0999 V2000
   -0.8958   -2.7434   -2.0210 O   0  0  0  0  0  0  0  0  0  0  0  0
   -1.1184   -3.6970   -1.2329 C   0  0  0  0  0  0  0  0  0  0  0  0
   -0.0021   -4.3886   -0.7162 N   0  0  0  0  0  0  0  0  0  0  0  0
    1.3258   -4.0530   -1.1560 C   0  0  0  0  0  0  0  0  0  0  0  0
    2.4118   -4.4361   -0.1467 C   0  0  0  0  0  0  0  0  0  0  0  0
    3.6197   -3.4985   -0.2491 C   0  0  0  0  0  0  0  0  0  0  0  0
    3.3155   -2.1361    0.4008 C   0  0  0  0  0  0  0  0  0  0  0  0
    3.8188   -0.9288   -0.4062 C   0  0  1  0  0  0  0  0  0  0  0  0
    4.9042   -1.0371   -0.5645 H   0  0  0  0  0  0  0  0  0  0  0  0
    3.2468   -0.9266   -1.8373 C   0  0  0  0  0  0  0  0  0  0  0  0
    1.9380   -0.5923   -2.0098 N   0  0  0  0  0  0  0  0  0  0  0  0
    0.9281   -0.2965   -1.0076 C   0  0  0  0  0  0  0  0  0  0  0  0
    0.3558    1.0862   -1.2428 C   0  0  0  0  0  0  0  0  0  0  0  0
   -0.1100    1.2787   -2.6101 N   0  0  0  0  0  0  0  0  0  0  0  0
    0.7337    0.7346   -3.6699 C   0  0  0  0  0  0  0  0  0  0  0  0
    1.3262   -0.6285   -3.3241 C   0  0  0  0  0  0  0  0  0  0  0  0
   -0.9228    2.3487   -2.8784 C   0  0  0  0  0  0  0  0  0  0  0  0
   -1.0685    2.8769   -4.1925 C   0  0  0  0  0  0  0  0  0  0  0  0
   -1.8570    3.8933   -4.4929 N   0  0  0  0  0  0  0  0  0  0  0  0
   -2.5448    4.4637   -3.5301 C   0  0  0  0  0  0  0  0  0  0  0  0
   -3.4055    5.6021   -3.9173 N   0  0  0  0  0  0  0  0  0  0  0  0
   -4.0309    6.1436   -3.0238 O   0  0  0  0  0  0  0  0  0  0  0  0
   -3.4401    5.9269   -5.0792 O   0  0  0  0  0  0  0  0  0  0  0  0
   -2.4922    4.0680   -2.1963 C   0  0  0  0  0  0  0  0  0  0  0  0
   -1.6665    3.0075   -1.8673 C   0  0  0  0  0  0  0  0  0  0  0  0
    3.9693   -1.2405   -2.7707 O   0  0  0  0  0  0  0  0  0  0  0  0
    3.5540    0.3649    0.2204 N   0  0  0  0  0  0  0  0  0  0  0  0
    3.7516    0.7241    1.5154 C   0  0  0  0  0  0  0  0  0  0  0  0
    3.3952    2.1853    1.8130 C   0  0  0  0  0  0  0  0  0  0  0  0
    2.2164    2.3373    2.7469 C   0  0  0  0  0  0  0  0  0  0  0  0
    2.3660    2.8967    4.0182 C   0  0  0  0  0  0  0  0  0  0  0  0
    1.2683    3.0684    4.8621 C   0  0  0  0  0  0  0  0  0  0  0  0
    0.0136    2.6680    4.4203 C   0  0  0  0  0  0  0  0  0  0  0  0
   -1.0381    2.8247    5.2353 F   0  0  0  0  0  0  0  0  0  0  0  0
   -0.1727    2.0963    3.1689 C   0  0  0  0  0  0  0  0  0  0  0  0
    0.9367    1.9368    2.3452 C   0  0  0  0  0  0  0  0  0  0  0  0
    4.1820   -0.0082    2.3858 O   0  0  0  0  0  0  0  0  0  0  0  0
   -2.3975   -4.0579   -0.7632 C   0  0  0  0  0  3  0  0  0  0  0  0
   -2.6956   -5.0594    0.2707 C   0  0  0  0  0  0  0  0  0  0  0  0
   -2.9863   -4.4388    2.0670 S   0  0  0  0  0  0  0  0  0  0  0  0
   -1.4778   -3.4716    2.3717 C   0  0  0  0  0  0  0  0  0  0  0  0
   -1.6380   -1.9403    2.2730 C   0  0  2  0  0  0  0  0  0  0  0  0
   -2.3889   -1.5948    3.0084 H   0  0  0  0  0  0  0  0  0  0  0  0
   -2.0543   -1.6073    0.9443 N   0  0  0  0  0  0  0  0  0  0  0  0
   -2.2758   -0.3665    0.4815 C   0  0  0  0  0  0  0  0  0  0  0  0
   -2.8218   -0.3394   -0.9298 C   0  0  0  0  0  0  0  0  0  0  0  0
   -2.0612    0.6550    1.1381 O   0  0  0  0  0  0  0  0  0  0  0  0
   -0.2728   -1.3447    2.6439 C   0  0  0  0  0  0  0  0  0  0  0  0
   -0.1018   -1.1003    3.9662 N   0  0  0  0  0  0  0  0  0  0  0  0
    1.1716   -0.7358    4.5422 C   0  0  0  0  0  0  0  0  0  0  0  0
    0.6206   -1.2123    1.8288 O   0  0  0  0  0  0  0  0  0  0  0  0
   -0.1570   -5.3530   -0.4531 H   0  0  0  0  0  0  0  0  0  0  0  0
    1.3296   -2.9680   -1.3122 H   0  0  0  0  0  0  0  0  0  0  0  0
    1.5781   -4.4866   -2.1459 H   0  0  0  0  0  0  0  0  0  0  0  0
    2.7221   -5.4849   -0.2954 H   0  0  0  0  0  0  0  0  0  0  0  0
    1.9905   -4.3736    0.8709 H   0  0  0  0  0  0  0  0  0  0  0  0
    3.8892   -3.3787   -1.3124 H   0  0  0  0  0  0  0  0  0  0  0  0
    4.5005   -3.9530    0.2320 H   0  0  0  0  0  0  0  0  0  0  0  0
    3.7676   -2.0759    1.3984 H   0  0  0  0  0  0  0  0  0  0  0  0
    2.2362   -2.0314    0.5687 H   0  0  0  0  0  0  0  0  0  0  0  0
    1.3115   -0.3539    0.0092 H   0  0  0  0  0  0  0  0  0  0  0  0
    0.1343   -1.0575   -1.0955 H   0  0  0  0  0  0  0  0  0  0  0  0
    1.1156    1.8622   -0.9988 H   0  0  0  0  0  0  0  0  0  0  0  0
   -0.4729    1.2107   -0.5375 H   0  0  0  0  0  0  0  0  0  0  0  0
    1.5509    1.4461   -3.9095 H   0  0  0  0  0  0  0  0  0  0  0  0
    0.1288    0.6062   -4.5776 H   0  0  0  0  0  0  0  0  0  0  0  0
    2.0882   -0.8983   -4.0643 H   0  0  0  0  0  0  0  0  0  0  0  0
    0.5370   -1.4002   -3.3030 H   0  0  0  0  0  0  0  0  0  0  0  0
   -0.5117    2.4511   -5.0285 H   0  0  0  0  0  0  0  0  0  0  0  0
   -3.0864    4.5828   -1.4433 H   0  0  0  0  0  0  0  0  0  0  0  0
   -1.6320    2.6765   -0.8293 H   0  0  0  0  0  0  0  0  0  0  0  0
    3.2450    1.0980   -0.4030 H   0  0  0  0  0  0  0  0  0  0  0  0
    3.1986    2.7410    0.8817 H   0  0  0  0  0  0  0  0  0  0  0  0
    4.2901    2.6293    2.2727 H   0  0  0  0  0  0  0  0  0  0  0  0
    3.3570    3.2062    4.3595 H   0  0  0  0  0  0  0  0  0  0  0  0
    1.3747    3.5062    5.8561 H   0  0  0  0  0  0  0  0  0  0  0  0
   -1.1506    1.7489    2.8285 H   0  0  0  0  0  0  0  0  0  0  0  0
    0.7874    1.4622    1.3755 H   0  0  0  0  0  0  0  0  0  0  0  0
   -3.2366   -3.5692   -1.2641 H   0  0  0  0  0  0  0  0  0  0  0  0
   -1.9267   -5.8373    0.3936 H   0  0  0  0  0  0  0  0  0  0  0  0
   -3.6509   -5.5804    0.1026 H   0  0  0  0  0  0  0  0  0  0  0  0
   -0.7168   -3.7765    1.6351 H   0  0  0  0  0  0  0  0  0  0  0  0
   -1.1056   -3.7282    3.3738 H   0  0  0  0  0  0  0  0  0  0  0  0
   -2.2155   -2.4058    0.3003 H   0  0  0  0  0  0  0  0  0  0  0  0
   -3.8673   -0.6841   -0.9138 H   0  0  0  0  0  0  0  0  0  0  0  0
   -2.2537   -1.0311   -1.5764 H   0  0  0  0  0  0  0  0  0  0  0  0
   -2.7995    0.6824   -1.3243 H   0  0  0  0  0  0  0  0  0  0  0  0
   -0.9085   -1.1742    4.5706 H   0  0  0  0  0  0  0  0  0  0  0  0
    1.1140    0.2318    5.0625 H   0  0  0  0  0  0  0  0  0  0  0  0
    1.9087   -0.6467    3.7337 H   0  0  0  0  0  0  0  0  0  0  0  0
    1.5192   -1.5037    5.2522 H   0  0  0  0  0  0  0  0  0  0  0  0
  1  2  2  0  0  0  0
  2 38  1  0  0  0  0
  2  3  1  0  0  0  0
  3 52  1  0  0  0  0
  4  3  1  0  0  0  0
  4  5  1  0  0  0  0
  5 56  1  0  0  0  0
  6  5  1  0  0  0  0
  6 58  1  0  0  0  0
  6  7  1  0  0  0  0
  7 60  1  0  0  0  0
  7 59  1  0  0  0  0
  8  9  1  6  0  0  0
  8 27  1  0  0  0  0
  8  7  1  0  0  0  0
 10  8  1  0  0  0  0
 11 10  1  0  0  0  0
 11 12  1  0  0  0  0
 12 61  1  0  0  0  0
 13 12  1  0  0  0  0
 13 63  1  0  0  0  0
 13 64  1  0  0  0  0
 14 13  1  0  0  0  0
 15 16  1  0  0  0  0
 15 14  1  0  0  0  0
 16 68  1  0  0  0  0
 16 11  1  0  0  0  0
 17 14  1  0  0  0  0
 17 25  1  0  0  0  0
 18 17  2  0  0  0  0
 19 18  1  0  0  0  0
 19 20  2  0  0  0  0
 20 24  1  0  0  0  0
 21 20  1  0  0  0  0
 21 22  2  0  0  0  0
 23 21  2  0  0  0  0
 24 25  2  0  0  0  0
 24 70  1  0  0  0  0
 25 71  1  0  0  0  0
 26 10  2  0  0  0  0
 27 28  1  0  0  0  0
 28 29  1  0  0  0  0
 28 37  2  0  0  0  0
 29 74  1  0  0  0  0
 29 30  1  0  0  0  0
 30 31  1  0  0  0  0
 31 75  1  0  0  0  0
 31 32  2  0  0  0  0
 32 76  1  0  0  0  0
 33 32  1  0  0  0  0
 33 34  1  0  0  0  0
 35 33  2  0  0  0  0
 36 30  2  0  0  0  0
 36 35  1  0  0  0  0
 38 39  1  0  0  0  0
 39 80  1  0  0  0  0
 39 40  1  0  0  0  0
 40 41  1  0  0  0  0
 41 83  1  0  0  0  0
 42 41  1  0  0  0  0
 42 48  1  0  0  0  0
 42 43  1  1  0  0  0
 44 42  1  0  0  0  0
 45 44  1  0  0  0  0
 45 47  2  0  0  0  0
 46 85  1  0  0  0  0
 46 45  1  0  0  0  0
 48 49  1  0  0  0  0
 49 50  1  0  0  0  0
 49 88  1  0  0  0  0
 50 89  1  0  0  0  0
 50 91  1  0  0  0  0
 51 48  2  0  0  0  0
 53  4  1  0  0  0  0
 54  4  1  0  0  0  0
 55  5  1  0  0  0  0
 57  6  1  0  0  0  0
 62 12  1  0  0  0  0
 65 15  1  0  0  0  0
 66 15  1  0  0  0  0
 67 16  1  0  0  0  0
 69 18  1  0  0  0  0
 72 27  1  0  0  0  0
 73 29  1  0  0  0  0
 77 35  1  0  0  0  0
 78 36  1  0  0  0  0
 79 38  1  0  0  0  0
 81 39  1  0  0  0  0
 82 41  1  0  0  0  0
 84 44  1  0  0  0  0
 86 46  1  0  0  0  0
 87 46  1  0  0  0  0
 90 50  1  0  0  0  0
M  END
