91
-1 1
O        -3.520839    9.675521   -1.933133
C        -3.737299    8.689160   -1.202321
N        -2.659405    8.048827   -0.627144
C        -1.315755    8.534165   -0.807854
C        -0.369469    8.153351    0.324022
C         0.936350    8.958397    0.259433
C         0.765110   10.410552    0.754436
C         1.243542   11.499973   -0.224703
H         2.320622   11.359235   -0.406052
C         0.627059   11.367349   -1.627547
N        -0.645008   11.820135   -1.834876
C        -1.661551   12.161424   -0.851111
C        -2.277531   13.506446   -1.173846
N        -2.751940   13.590711   -2.547998
C        -1.879182   13.019570   -3.568219
C        -1.257436   11.693229   -3.145630
C        -3.606075   14.609760   -2.881903
C        -3.759164   15.060343   -4.223190
N        -4.585129   16.026464   -4.583526
C        -5.305054   16.618718   -3.658472
N        -6.206061   17.700228   -4.113093
O        -6.857413   18.266080   -3.254061
O        -6.244432   17.957884   -5.291359
C        -5.251555   16.296274   -2.305206
C        -4.387102   15.288914   -1.914272
O         1.294035   10.876514   -2.523636
N         1.020444   12.851096    0.283274
C         1.456329   13.335070    1.474025
C         0.937224   14.737807    1.807913
C        -0.224267   14.648177    2.772164
C        -0.031516   14.781071    4.149833
C        -1.096154   14.629132    5.037466
C        -2.354930   14.327917    4.533821
F        -3.363620   14.129583    5.394387
C        -2.587134   14.188818    3.173007
C        -1.511483   14.354370    2.306567
O         2.158304   12.718066    2.251758
C        -5.071677    8.209436   -0.936602
C        -5.465214    7.235042   -0.011729
S        -6.076109    7.948711    2.077492
C        -4.533602    8.806016    2.480832
C        -4.543136   10.345286    2.323885
H        -5.196165   10.800270    3.090407
N        -5.002641   10.686283    1.009008
C        -5.008681   11.920733    0.480094
C        -5.531805   11.977285   -0.937164
O        -4.610658   12.918853    1.086636
C        -3.093810   10.769979    2.551747
N        -2.756067   11.052505    3.831175
C        -1.373607   11.202648    4.220953
O        -2.262216   10.717611    1.662727
H        -2.801441    7.160232   -0.169484
H        -1.381472    9.624763   -0.868856
H        -0.881104    8.204379   -1.772656
H        -0.147551    7.072202    0.282170
H        -0.871979    8.344367    1.287024
H         1.316432    8.941282   -0.776557
H         1.705208    8.454066    0.865097
H         1.333794   10.564499    1.680846
H        -0.285219   10.593601    1.014860
H        -1.272131   12.174362    0.167300
H        -2.442859   11.385171   -0.878247
H        -1.544141   14.324414   -0.989567
H        -3.110008   13.634649   -0.471676
H        -1.079413   13.741615   -3.834395
H        -2.467862   12.825850   -4.474703
H        -0.488925   11.396128   -3.868094
H        -2.030380   10.907298   -3.086956
H        -3.177145   14.613831   -5.030777
H        -5.874892   16.824414   -1.585830
H        -4.349901   15.009390   -0.861571
H         0.516152   13.487160   -0.318682
H         0.632809   15.277289    0.897273
H         1.771686   15.287374    2.264136
H         0.967961   14.991116    4.537216
H        -0.957157   14.722846    6.115936
H        -3.566466   13.902099    2.781958
H        -1.689209   14.234613    1.238133
H        -5.840310    8.723043   -1.520060
H        -4.723657    6.539226    0.394547
H        -6.438429    6.760526   -0.158802
H        -3.739848    8.436506    1.811847
H        -4.230282    8.572005    3.512492
H        -5.294100    9.903112    0.418188
H        -6.544137   11.548775   -0.982876
H        -4.884741   11.363975   -1.587911
H        -5.565906   13.015579   -1.283971
H        -3.485720   11.138734    4.524410
H        -1.325440   11.604971    5.240183
H        -0.850494   11.895111    3.545694
H        -0.840241   10.238182    4.189505
