91
-1 1
O        -0.895827   -2.743436   -2.021010
C        -1.118398   -3.696990   -1.232890
N        -0.002098   -4.388632   -0.716237
C         1.325843   -4.052968   -1.155955
C         2.411841   -4.436072   -0.146750
C         3.619665   -3.498476   -0.249101
C         3.315480   -2.136054    0.400818
C         3.818788   -0.928841   -0.406239
H         4.904211   -1.037071   -0.564520
C         3.246767   -0.926576   -1.837253
N         1.938046   -0.592322   -2.009843
C         0.928096   -0.296475   -1.007560
C         0.355843    1.086177   -1.242846
N        -0.110009    1.278686   -2.610104
C         0.733678    0.734623   -3.669861
C         1.326210   -0.628527   -3.324132
C        -0.922791    2.348671   -2.878365
C        -1.068461    2.876913   -4.192482
N        -1.857017    3.893260   -4.492867
C        -2.544818    4.463716   -3.530085
N        -3.405516    5.602066   -3.917275
O        -4.030882    6.143617   -3.023795
O        -3.440127    5.926908   -5.079201
C        -2.492245    4.068038   -2.196293
C        -1.666496    3.007502   -1.867291
O         3.969331   -1.240516   -2.770690
N         3.553954    0.364913    0.220394
C         3.751619    0.724141    1.515414
C         3.395159    2.185338    1.813028
C         2.216435    2.337274    2.746937
C         2.365980    2.896708    4.018182
C         1.268264    3.068412    4.862100
C         0.013573    2.667953    4.420347
F        -1.038075    2.824706    5.235263
C        -0.172664    2.096293    3.168858
C         0.936708    1.936848    2.345179
O         4.182013   -0.008235    2.385756
C        -2.397549   -4.057918   -0.763159
C        -2.695629   -5.059383    0.270749
S        -2.986285   -4.438761    2.066979
C        -1.477755   -3.471598    2.371688
C        -1.638011   -1.940296    2.273012
H        -2.388853   -1.594764    3.008436
N        -2.054254   -1.607343    0.944315
C        -2.275768   -0.366502    0.481537
C        -2.821802   -0.339386   -0.929849
O        -2.061181    0.655031    1.138106
C        -0.272808   -1.344749    2.643854
N        -0.101813   -1.100279    3.966228
C         1.171604   -0.735848    4.542184
O         0.620601   -1.212347    1.828803
H        -0.156981   -5.353026   -0.453067
H         1.329625   -2.967962   -1.312203
H         1.578070   -4.486599   -2.145912
H         2.722051   -5.484854   -0.295381
H         1.990499   -4.373557    0.870899
H         3.889195   -3.378694   -1.312442
H         4.500493   -3.952953    0.231991
H         3.767575   -2.075919    1.398352
H         2.236156   -2.031367    0.568744
H         1.311548   -0.353908    0.009176
H         0.134301   -1.057511   -1.095485
H         1.115570    1.862208   -0.998833
H        -0.472903    1.210701   -0.537540
H         1.550919    1.446143   -3.909513
H         0.128777    0.606151   -4.577598
H         2.088204   -0.898287   -4.064293
H         0.537012   -1.400225   -3.303017
H        -0.511685    2.451117   -5.028514
H        -3.086413    4.582823   -1.443276
H        -1.632019    2.676499   -0.829313
H         3.244970    1.098020   -0.402997
H         3.198579    2.740974    0.881659
H         4.290101    2.629260    2.272716
H         3.356993    3.206199    4.359461
H         1.374713    3.506246    5.856106
H        -1.150644    1.748888    2.828545
H         0.787416    1.462172    1.375479
H        -3.236615   -3.569169   -1.264139
H        -1.926748   -5.837293    0.393587
H        -3.650906   -5.580385    0.102647
H        -0.716813   -3.776522    1.635102
H        -1.105584   -3.728157    3.373808
H        -2.215469   -2.405771    0.300337
H        -3.867344   -0.684123   -0.913763
H        -2.253717   -1.031081   -1.576443
H        -2.799520    0.682363   -1.324296
H        -0.908472   -1.174204    4.570628
H         1.114015    0.231755    5.062523
H         1.908691   -0.646728    3.733695
H         1.519197   -1.503666    5.252227
