-1 1
 OpenBabel05232414493D

 93 94  0  0  1  0  0  0  0  0999 V2000
    1.4615   -6.6372   -2.6531 O   0  0  0  0  0  0  0  0  0  0  0  0
    0.9864   -7.7186   -3.0552 C   0  0  0  0  0  0  0  0  0  0  0  0
    1.4432   -8.1955   -4.2672 N   0  0  0  0  0  0  0  0  0  0  0  0
    0.7511   -9.0667   -5.1850 C   0  0  0  0  0  0  0  0  0  0  0  0
    0.9041   -8.5992   -6.6288 C   0  0  0  0  0  0  0  0  0  0  0  0
   -0.0365   -9.3404   -7.5705 C   0  0  0  0  0  0  0  0  0  0  0  0
    0.1149   -8.9212   -9.0322 C   0  0  0  0  0  0  0  0  0  0  0  0
   -1.1659   -9.1388   -9.8730 C   0  0  1  0  0  0  0  0  0  0  0  0
   -0.9632   -8.8395  -10.9116 H   0  0  0  0  0  0  0  0  0  0  0  0
   -1.6322  -10.5895   -9.7892 C   0  0  0  0  0  0  0  0  0  0  0  0
   -0.9827  -11.5053  -10.5680 N   0  0  0  0  0  0  0  0  0  0  0  0
   -0.0770  -11.1528  -11.6534 C   0  0  0  0  0  0  0  0  0  0  0  0
    0.6235  -12.3911  -12.1987 C   0  0  0  0  0  0  0  0  0  0  0  0
   -0.3360  -13.3898  -12.6284 N   0  0  0  0  0  0  0  0  0  0  0  0
   -1.5559  -13.5146  -11.8480 C   0  0  0  0  0  0  0  0  0  0  0  0
   -1.3729  -12.9017  -10.4697 C   0  0  0  0  0  0  0  0  0  0  0  0
   -0.0969  -14.2232  -13.6928 C   0  0  0  0  0  0  0  0  0  0  0  0
    1.1874  -14.3471  -14.2839 C   0  0  0  0  0  0  0  0  0  0  0  0
    1.4545  -15.1250  -15.3152 N   0  0  0  0  0  0  0  0  0  0  0  0
    0.4870  -15.8757  -15.8424 C   0  0  0  0  0  0  0  0  0  0  0  0
    0.8663  -16.7222  -17.0334 C   0  0  0  0  0  0  0  0  0  0  0  0
    0.1570  -17.8929  -17.1505 N   0  0  0  0  0  0  0  0  0  0  0  0
    1.6982  -16.3845  -17.8428 O   0  0  0  0  0  0  0  0  0  0  0  0
   -0.8140  -15.8436  -15.3339 C   0  0  0  0  0  0  0  0  0  0  0  0
   -1.1133  -15.0137  -14.2617 C   0  0  0  0  0  0  0  0  0  0  0  0
   -2.5133  -10.9090   -9.0093 O   0  0  0  0  0  0  0  0  0  0  0  0
   -2.2393   -8.3143   -9.3754 N   0  0  0  0  0  0  0  0  0  0  0  0
   -2.2157   -6.9642   -9.5315 C   0  0  0  0  0  0  0  0  0  0  0  0
   -3.0696   -6.1931   -8.5361 C   0  0  0  0  0  0  0  0  0  0  0  0
   -2.2302   -5.9501   -7.2957 C   0  0  0  0  0  0  0  0  0  0  0  0
   -2.4407   -6.6748   -6.1179 C   0  0  0  0  0  0  0  0  0  0  0  0
   -1.6167   -6.4876   -5.0072 C   0  0  0  0  0  0  0  0  0  0  0  0
   -0.5660   -5.5712   -5.0594 C   0  0  0  0  0  0  0  0  0  0  0  0
   -0.3489   -4.8480   -6.2329 C   0  0  0  0  0  0  0  0  0  0  0  0
   -1.1690   -5.0383   -7.3435 C   0  0  0  0  0  0  0  0  0  0  0  0
   -1.4929   -6.4107  -10.3408 O   0  0  0  0  0  0  0  0  0  0  0  0
   -0.0094   -8.4514   -2.3006 C   0  0  0  0  0  3  0  0  0  0  0  0
   -0.2211   -9.8149   -2.2980 C   0  0  0  0  0  3  0  0  0  0  0  0
    1.3580  -11.0314   -0.8268 S   0  0  0  0  0  1  0  0  0  0  0  0
    2.6699   -9.7849   -0.9031 C   0  0  0  0  0  0  0  0  0  0  0  0
    3.0411   -9.1437    0.4445 C   0  0  2  0  0  0  0  0  0  0  0  0
    3.9482   -8.5313    0.3115 H   0  0  0  0  0  0  0  0  0  0  0  0
    3.3515  -10.1619    1.4105 N   0  0  0  0  0  0  0  0  0  0  0  0
    4.1796   -9.9432    2.4604 C   0  0  0  0  0  0  0  0  0  0  0  0
    4.0688  -10.9771    3.5679 C   0  0  0  0  0  0  0  0  0  0  0  0
    4.9531   -9.0036    2.5309 O   0  0  0  0  0  0  0  0  0  0  0  0
    1.9646   -8.1993    1.0243 C   0  0  0  0  0  0  0  0  0  0  0  0
    1.6071   -7.1605    0.2341 N   0  0  0  0  0  0  0  0  0  0  0  0
    0.5595   -6.2618    0.6411 C   0  0  0  0  0  0  0  0  0  0  0  0
    1.5104   -8.3511    2.1463 O   0  0  0  0  0  0  0  0  0  0  0  0
    2.1528   -7.5867   -4.6576 H   0  0  0  0  0  0  0  0  0  0  0  0
   -0.3195   -9.0702   -4.9240 H   0  0  0  0  0  0  0  0  0  0  0  0
    1.0984  -10.1141   -5.0998 H   0  0  0  0  0  0  0  0  0  0  0  0
    1.9529   -8.7202   -6.9564 H   0  0  0  0  0  0  0  0  0  0  0  0
    0.6748   -7.5214   -6.6786 H   0  0  0  0  0  0  0  0  0  0  0  0
   -1.0660   -9.1367   -7.2358 H   0  0  0  0  0  0  0  0  0  0  0  0
    0.1019  -10.4309   -7.4710 H   0  0  0  0  0  0  0  0  0  0  0  0
    0.9726   -9.4391   -9.4923 H   0  0  0  0  0  0  0  0  0  0  0  0
    0.3373   -7.8443   -9.0985 H   0  0  0  0  0  0  0  0  0  0  0  0
    0.6955  -10.4519  -11.3083 H   0  0  0  0  0  0  0  0  0  0  0  0
   -0.6269  -10.6626  -12.4767 H   0  0  0  0  0  0  0  0  0  0  0  0
    1.3272  -12.7909  -11.4442 H   0  0  0  0  0  0  0  0  0  0  0  0
    1.2251  -12.0676  -13.0589 H   0  0  0  0  0  0  0  0  0  0  0  0
   -1.8055  -14.5807  -11.7204 H   0  0  0  0  0  0  0  0  0  0  0  0
   -2.4141  -13.0354  -12.3574 H   0  0  0  0  0  0  0  0  0  0  0  0
   -0.6182  -13.4738   -9.9031 H   0  0  0  0  0  0  0  0  0  0  0  0
   -2.3109  -12.9453   -9.9035 H   0  0  0  0  0  0  0  0  0  0  0  0
    2.0356  -13.7877  -13.8781 H   0  0  0  0  0  0  0  0  0  0  0  0
   -0.2766  -18.3114  -16.3395 H   0  0  0  0  0  0  0  0  0  0  0  0
    0.4501  -18.5159  -17.8927 H   0  0  0  0  0  0  0  0  0  0  0  0
   -1.6053  -16.4377  -15.7958 H   0  0  0  0  0  0  0  0  0  0  0  0
   -2.1376  -14.9627  -13.8919 H   0  0  0  0  0  0  0  0  0  0  0  0
   -2.8248   -8.7466   -8.6689 H   0  0  0  0  0  0  0  0  0  0  0  0
   -3.9834   -6.7500   -8.2799 H   0  0  0  0  0  0  0  0  0  0  0  0
   -3.3573   -5.2442   -9.0082 H   0  0  0  0  0  0  0  0  0  0  0  0
   -3.2599   -7.3987   -6.0662 H   0  0  0  0  0  0  0  0  0  0  0  0
   -1.7714   -7.0739   -4.0974 H   0  0  0  0  0  0  0  0  0  0  0  0
    0.0940   -5.4536   -4.1954 H   0  0  0  0  0  0  0  0  0  0  0  0
    0.4771   -4.1346   -6.2862 H   0  0  0  0  0  0  0  0  0  0  0  0
   -0.9809   -4.4899   -8.2702 H   0  0  0  0  0  0  0  0  0  0  0  0
   -0.4314   -7.8666   -1.4806 H   0  0  0  0  0  0  0  0  0  0  0  0
    0.1128  -10.4540   -3.1132 H   0  0  0  0  0  0  0  0  0  0  0  0
   -1.0471  -10.2150   -1.7106 H   0  0  0  0  0  0  0  0  0  0  0  0
    2.3494   -8.9906   -1.5969 H   0  0  0  0  0  0  0  0  0  0  0  0
    3.5845  -10.2258   -1.3291 H   0  0  0  0  0  0  0  0  0  0  0  0
    2.6368  -10.8825    1.4772 H   0  0  0  0  0  0  0  0  0  0  0  0
    4.9868  -10.9624    4.1679 H   0  0  0  0  0  0  0  0  0  0  0  0
    3.8892  -11.9886    3.1752 H   0  0  0  0  0  0  0  0  0  0  0  0
    3.2175  -10.7017    4.2092 H   0  0  0  0  0  0  0  0  0  0  0  0
    1.8692   -7.1078   -0.7505 H   0  0  0  0  0  0  0  0  0  0  0  0
   -0.3473   -6.8123    0.9434 H   0  0  0  0  0  0  0  0  0  0  0  0
    0.3201   -5.6129   -0.2117 H   0  0  0  0  0  0  0  0  0  0  0  0
    0.8653   -5.6397    1.4988 H   0  0  0  0  0  0  0  0  0  0  0  0
  2  1  2  0  0  0  0
  2 37  1  0  0  0  0
  3  2  1  0  0  0  0
  4 53  1  0  0  0  0
  4 52  1  0  0  0  0
  4  3  1  0  0  0  0
  5  4  1  0  0  0  0
  6 57  1  0  0  0  0
  6 56  1  0  0  0  0
  6  5  1  0  0  0  0
  7  6  1  0  0  0  0
  8  9  1  6  0  0  0
  8 10  1  0  0  0  0
  8 27  1  0  0  0  0
  8  7  1  0  0  0  0
 10 26  2  0  0  0  0
 11 16  1  0  0  0  0
 11 10  1  0  0  0  0
 12 60  1  0  0  0  0
 12 11  1  0  0  0  0
 13 12  1  0  0  0  0
 13 62  1  0  0  0  0
 14 13  1  0  0  0  0
 14 15  1  0  0  0  0
 15 64  1  0  0  0  0
 15 16  1  0  0  0  0
 16 67  1  0  0  0  0
 16 66  1  0  0  0  0
 17 14  1  0  0  0  0
 18 68  1  0  0  0  0
 18 17  2  0  0  0  0
 19 18  1  0  0  0  0
 20 24  1  0  0  0  0
 20 19  2  0  0  0  0
 21 20  1  0  0  0  0
 22 21  1  0  0  0  0
 22 69  1  0  0  0  0
 23 21  2  0  0  0  0
 24 25  2  0  0  0  0
 25 72  1  0  0  0  0
 25 17  1  0  0  0  0
 27 73  1  0  0  0  0
 28 27  1  0  0  0  0
 28 29  1  0  0  0  0
 29 74  1  0  0  0  0
 29 30  1  0  0  0  0
 30 31  1  0  0  0  0
 31 76  1  0  0  0  0
 31 32  2  0  0  0  0
 32 77  1  0  0  0  0
 33 32  1  0  0  0  0
 33 78  1  0  0  0  0
 34 33  2  0  0  0  0
 35 30  2  0  0  0  0
 35 34  1  0  0  0  0
 36 28  2  0  0  0  0
 37 38  1  0  0  0  0
 37 81  1  0  0  0  0
 38 83  1  0  0  0  0
 40 39  1  0  0  0  0
 40 41  1  0  0  0  0
 41 42  1  6  0  0  0
 41 47  1  0  0  0  0
 41 43  1  0  0  0  0
 43 86  1  0  0  0  0
 43 44  1  0  0  0  0
 44 46  2  0  0  0  0
 44 45  1  0  0  0  0
 45 87  1  0  0  0  0
 45 89  1  0  0  0  0
 47 50  2  0  0  0  0
 48 49  1  0  0  0  0
 48 47  1  0  0  0  0
 49 91  1  0  0  0  0
 49 93  1  0  0  0  0
 51  3  1  0  0  0  0
 54  5  1  0  0  0  0
 55  5  1  0  0  0  0
 58  7  1  0  0  0  0
 59  7  1  0  0  0  0
 61 12  1  0  0  0  0
 63 13  1  0  0  0  0
 65 15  1  0  0  0  0
 70 22  1  0  0  0  0
 71 24  1  0  0  0  0
 75 29  1  0  0  0  0
 79 34  1  0  0  0  0
 80 35  1  0  0  0  0
 82 38  1  0  0  0  0
 84 40  1  0  0  0  0
 85 40  1  0  0  0  0
 88 45  1  0  0  0  0
 90 48  1  0  0  0  0
 92 49  1  0  0  0  0
M  END
