-1 1
 OpenBabel05192410563D

 93 95  0  0  1  0  0  0  0  0999 V2000
    0.8784    3.5338    4.2846 O   0  0  0  0  0  0  0  0  0  0  0  0
    0.4456    2.3686    4.0024 C   0  0  0  0  0  0  0  0  0  0  0  0
    1.0441    1.7773    2.8667 N   0  0  0  0  0  0  0  0  0  0  0  0
    0.3176    0.9829    1.9057 C   0  0  0  0  0  0  0  0  0  0  0  0
    0.5268    1.4608    0.4709 C   0  0  0  0  0  0  0  0  0  0  0  0
   -0.4331    0.7902   -0.5039 C   0  0  0  0  0  0  0  0  0  0  0  0
   -0.2283    1.2239   -1.9542 C   0  0  0  0  0  0  0  0  0  0  0  0
   -1.4753    1.0176   -2.8475 C   0  0  1  0  0  0  0  0  0  0  0  0
   -1.2292    1.3212   -3.8753 H   0  0  0  0  0  0  0  0  0  0  0  0
   -1.9508   -0.4303   -2.7906 C   0  0  0  0  0  0  0  0  0  0  0  0
   -1.2737   -1.3438   -3.5516 N   0  0  0  0  0  0  0  0  0  0  0  0
   -0.3275   -0.9857   -4.5993 C   0  0  0  0  0  0  0  0  0  0  0  0
    0.3870   -2.2222   -5.1303 C   0  0  0  0  0  0  0  0  0  0  0  0
   -0.5605   -3.2134   -5.6032 N   0  0  0  0  0  0  0  0  0  0  0  0
   -1.8087   -3.3388   -4.8686 C   0  0  0  0  0  0  0  0  0  0  0  0
   -1.6727   -2.7385   -3.4794 C   0  0  0  0  0  0  0  0  0  0  0  0
   -0.2902   -4.0349   -6.6685 C   0  0  0  0  0  0  0  0  0  0  0  0
    1.0123   -4.1585   -7.2194 C   0  0  0  0  0  0  0  0  0  0  0  0
    1.3095   -4.9268   -8.2495 N   0  0  0  0  0  0  0  0  0  0  0  0
    0.3565   -5.6674   -8.8160 C   0  0  0  0  0  0  0  0  0  0  0  0
    0.7711   -6.5042  -10.0018 C   0  0  0  0  0  0  0  0  0  0  0  0
    0.0568   -7.6677  -10.1571 N   0  0  0  0  0  0  0  0  0  0  0  0
    1.6342   -6.1659  -10.7779 O   0  0  0  0  0  0  0  0  0  0  0  0
   -0.9604   -5.6343   -8.3501 C   0  0  0  0  0  0  0  0  0  0  0  0
   -1.2909   -4.8147   -7.2792 C   0  0  0  0  0  0  0  0  0  0  0  0
   -2.8613   -0.7544   -2.0482 O   0  0  0  0  0  0  0  0  0  0  0  0
   -2.5628    1.8511   -2.3989 N   0  0  0  0  0  0  0  0  0  0  0  0
   -2.5440    3.1951   -2.6086 C   0  0  0  0  0  0  0  0  0  0  0  0
   -3.4032    3.9994   -1.6444 C   0  0  0  0  0  0  0  0  0  0  0  0
   -2.5899    4.2191   -0.3824 C   0  0  0  0  0  0  0  0  0  0  0  0
   -2.8438    3.4915    0.7854 C   0  0  0  0  0  0  0  0  0  0  0  0
   -2.0271    3.6337    1.9081 C   0  0  0  0  0  0  0  0  0  0  0  0
   -0.9405    4.5103    1.8804 C   0  0  0  0  0  0  0  0  0  0  0  0
   -0.6868    5.2418    0.7192 C   0  0  0  0  0  0  0  0  0  0  0  0
   -1.4989    5.0957   -0.4044 C   0  0  0  0  0  0  0  0  0  0  0  0
   -1.8224    3.7183   -3.4390 O   0  0  0  0  0  0  0  0  0  0  0  0
   -0.5207    1.6752    4.7356 C   0  0  0  0  0  3  0  0  0  0  0  0
   -0.5631    0.2114    4.9003 C   0  0  0  0  0  0  0  0  0  0  0  0
    0.4657   -0.4553    6.3625 S   0  0  0  0  0  0  0  0  0  0  0  0
    2.0496    0.3877    6.0738 C   0  0  0  0  0  0  0  0  0  0  0  0
    2.5788    1.1933    7.2680 C   0  0  2  0  0  0  0  0  0  0  0  0
    3.4840    1.7202    6.9150 H   0  0  0  0  0  0  0  0  0  0  0  0
    2.9376    0.3503    8.3829 N   0  0  0  0  0  0  0  0  0  0  0  0
    4.0351   -0.4327    8.4122 C   0  0  0  0  0  0  0  0  0  0  0  0
    4.2107   -1.2435    9.6861 C   0  0  0  0  0  0  0  0  0  0  0  0
    4.8271   -0.5241    7.4869 O   0  0  0  0  0  0  0  0  0  0  0  0
    1.6047    2.2456    7.8363 C   0  0  0  0  0  0  0  0  0  0  0  0
    1.2024    3.2152    7.0075 N   0  0  0  0  0  0  0  0  0  0  0  0
    0.2040    4.1621    7.4358 C   0  0  0  0  0  0  0  0  0  0  0  0
    1.2653    2.1894    9.0165 O   0  0  0  0  0  0  0  0  0  0  0  0
    1.7093    2.4313    2.4702 H   0  0  0  0  0  0  0  0  0  0  0  0
   -0.7580    1.0402    2.1493 H   0  0  0  0  0  0  0  0  0  0  0  0
    0.5880   -0.0912    1.9643 H   0  0  0  0  0  0  0  0  0  0  0  0
    1.5743    1.2853    0.1630 H   0  0  0  0  0  0  0  0  0  0  0  0
    0.3608    2.5504    0.4331 H   0  0  0  0  0  0  0  0  0  0  0  0
   -1.4568    1.0447   -0.1867 H   0  0  0  0  0  0  0  0  0  0  0  0
   -0.3562   -0.3083   -0.4224 H   0  0  0  0  0  0  0  0  0  0  0  0
    0.6456    0.7078   -2.3862 H   0  0  0  0  0  0  0  0  0  0  0  0
    0.0002    2.3008   -1.9986 H   0  0  0  0  0  0  0  0  0  0  0  0
    0.4349   -0.2918   -4.2195 H   0  0  0  0  0  0  0  0  0  0  0  0
   -0.8439   -0.4849   -5.4379 H   0  0  0  0  0  0  0  0  0  0  0  0
    1.0609   -2.6325   -4.3545 H   0  0  0  0  0  0  0  0  0  0  0  0
    1.0207   -1.8941   -5.9652 H   0  0  0  0  0  0  0  0  0  0  0  0
   -2.0677   -4.4048   -4.7605 H   0  0  0  0  0  0  0  0  0  0  0  0
   -2.6452   -2.8504   -5.4046 H   0  0  0  0  0  0  0  0  0  0  0  0
   -0.9419   -3.3199   -2.8910 H   0  0  0  0  0  0  0  0  0  0  0  0
   -2.6308   -2.7817   -2.9476 H   0  0  0  0  0  0  0  0  0  0  0  0
    1.8491   -3.6070   -6.7803 H   0  0  0  0  0  0  0  0  0  0  0  0
   -0.4073   -8.0917   -9.3659 H   0  0  0  0  0  0  0  0  0  0  0  0
    0.3723   -8.2854  -10.8946 H   0  0  0  0  0  0  0  0  0  0  0  0
   -1.7390   -6.2190   -8.8442 H   0  0  0  0  0  0  0  0  0  0  0  0
   -2.3264   -4.7626   -6.9424 H   0  0  0  0  0  0  0  0  0  0  0  0
   -3.1431    1.4526   -1.6691 H   0  0  0  0  0  0  0  0  0  0  0  0
   -4.3400    3.4701   -1.4125 H   0  0  0  0  0  0  0  0  0  0  0  0
   -3.6478    4.9526   -2.1317 H   0  0  0  0  0  0  0  0  0  0  0  0
   -3.6883    2.7954    0.8160 H   0  0  0  0  0  0  0  0  0  0  0  0
   -2.2018    3.0398    2.8098 H   0  0  0  0  0  0  0  0  0  0  0  0
   -0.2788    4.5704    2.7522 H   0  0  0  0  0  0  0  0  0  0  0  0
    0.1664    5.9240    0.6838 H   0  0  0  0  0  0  0  0  0  0  0  0
   -1.2783    5.6478   -1.3219 H   0  0  0  0  0  0  0  0  0  0  0  0
   -0.9646    2.2561    5.5489 H   0  0  0  0  0  0  0  0  0  0  0  0
   -0.2124   -0.3510    4.0256 H   0  0  0  0  0  0  0  0  0  0  0  0
   -1.5590   -0.1772    5.1658 H   0  0  0  0  0  0  0  0  0  0  0  0
    1.9134    1.0495    5.2085 H   0  0  0  0  0  0  0  0  0  0  0  0
    2.8226   -0.3462    5.8081 H   0  0  0  0  0  0  0  0  0  0  0  0
    2.3566    0.5129    9.2030 H   0  0  0  0  0  0  0  0  0  0  0  0
    3.9304   -2.2863    9.4751 H   0  0  0  0  0  0  0  0  0  0  0  0
    3.5987   -0.8785   10.5226 H   0  0  0  0  0  0  0  0  0  0  0  0
    5.2720   -1.2329    9.9678 H   0  0  0  0  0  0  0  0  0  0  0  0
    1.3410    3.2056    5.9804 H   0  0  0  0  0  0  0  0  0  0  0  0
   -0.6609    3.6510    7.8889 H   0  0  0  0  0  0  0  0  0  0  0  0
   -0.1247    4.7120    6.5448 H   0  0  0  0  0  0  0  0  0  0  0  0
    0.6017    4.8687    8.1834 H   0  0  0  0  0  0  0  0  0  0  0  0
  2  1  2  0  0  0  0
  2 37  1  0  0  0  0
  3  2  1  0  0  0  0
  4 53  1  0  0  0  0
  4 52  1  0  0  0  0
  4  3  1  0  0  0  0
  5  4  1  0  0  0  0
  6 57  1  0  0  0  0
  6 56  1  0  0  0  0
  6  5  1  0  0  0  0
  7  6  1  0  0  0  0
  8  9  1  6  0  0  0
  8 10  1  0  0  0  0
  8 27  1  0  0  0  0
  8  7  1  0  0  0  0
 10 26  2  0  0  0  0
 11 16  1  0  0  0  0
 11 10  1  0  0  0  0
 12 60  1  0  0  0  0
 12 11  1  0  0  0  0
 13 12  1  0  0  0  0
 13 62  1  0  0  0  0
 14 13  1  0  0  0  0
 14 15  1  0  0  0  0
 15 64  1  0  0  0  0
 15 16  1  0  0  0  0
 16 67  1  0  0  0  0
 16 66  1  0  0  0  0
 17 14  1  0  0  0  0
 18 68  1  0  0  0  0
 18 17  1  0  0  0  0
 19 18  2  0  0  0  0
 20 24  2  0  0  0  0
 20 19  1  0  0  0  0
 21 20  1  0  0  0  0
 22 21  1  0  0  0  0
 22 69  1  0  0  0  0
 23 21  2  0  0  0  0
 24 25  1  0  0  0  0
 25 72  1  0  0  0  0
 25 17  2  0  0  0  0
 27 73  1  0  0  0  0
 28 27  1  0  0  0  0
 28 29  1  0  0  0  0
 29 74  1  0  0  0  0
 29 30  1  0  0  0  0
 30 31  1  0  0  0  0
 31 76  1  0  0  0  0
 31 32  2  0  0  0  0
 32 77  1  0  0  0  0
 33 32  1  0  0  0  0
 33 78  1  0  0  0  0
 34 33  2  0  0  0  0
 35 30  2  0  0  0  0
 35 34  1  0  0  0  0
 36 28  2  0  0  0  0
 37 38  1  0  0  0  0
 37 81  1  0  0  0  0
 38 83  1  0  0  0  0
 38 39  1  0  0  0  0
 40 39  1  0  0  0  0
 40 41  1  0  0  0  0
 41 42  1  6  0  0  0
 41 47  1  0  0  0  0
 41 43  1  0  0  0  0
 43 44  1  0  0  0  0
 43 86  1  0  0  0  0
 44 45  1  0  0  0  0
 45 89  1  0  0  0  0
 45 88  1  0  0  0  0
 46 44  2  0  0  0  0
 47 50  2  0  0  0  0
 48 49  1  0  0  0  0
 48 47  1  0  0  0  0
 49 91  1  0  0  0  0
 49 93  1  0  0  0  0
 51  3  1  0  0  0  0
 54  5  1  0  0  0  0
 55  5  1  0  0  0  0
 58  7  1  0  0  0  0
 59  7  1  0  0  0  0
 61 12  1  0  0  0  0
 63 13  1  0  0  0  0
 65 15  1  0  0  0  0
 70 22  1  0  0  0  0
 71 24  1  0  0  0  0
 75 29  1  0  0  0  0
 79 34  1  0  0  0  0
 80 35  1  0  0  0  0
 82 38  1  0  0  0  0
 84 40  1  0  0  0  0
 85 40  1  0  0  0  0
 87 45  1  0  0  0  0
 90 48  1  0  0  0  0
 92 49  1  0  0  0  0
M  END
