89
-1 1
O         1.705071    1.897226   -2.866112
C         0.494091    1.978737   -2.723565
N        -0.289624    0.965743   -3.237503
C        -1.618313    0.540090   -3.029917
C        -2.284027    0.674121   -1.806884
C        -3.555937    0.122817   -1.680255
O        -4.275862    0.232892   -0.513476
C        -3.824134   -0.266892    0.641336
C        -4.660178   -0.142695    1.765454
C        -5.985387    0.546353    1.710791
F        -5.903865    1.823144    1.345504
F        -6.827975   -0.050000    0.846618
F        -6.592573    0.516437    2.911067
C        -4.159838   -0.710263    2.928324
N        -2.982603   -1.313109    3.002644
C        -2.272762   -1.363267    1.864787
N        -1.048901   -1.949995    1.976055
C         0.062441   -1.866318    1.127824
C         1.320172   -2.085831    1.737532
O         1.267744   -2.455788    3.036758
C         2.451274   -2.487079    3.791736
C         2.495521   -1.909102    1.020075
C         2.466099   -1.556785   -0.343847
N         3.683477   -1.353930   -1.034185
C         3.605035   -0.811460   -2.379521
C         4.969973   -0.334199   -2.855908
N         5.969912   -1.380590   -2.719168
C         6.040896   -1.924487   -1.379861
C         4.669249   -2.413809   -0.931569
C         6.693429   -1.794693   -3.802310
C         7.701414   -2.911406   -3.577505
O         6.551677   -1.302383   -4.907071
C         1.221598   -1.398541   -0.952532
C         0.038084   -1.548094   -0.224498
N        -2.684193   -0.915666    0.675782
C        -4.188093   -0.534370   -2.732449
C        -3.520923   -0.648969   -3.947812
C        -2.246012   -0.115429   -4.099336
C        -0.110734    3.180898   -2.094177
C        -1.305149    3.692032   -2.397750
S        -2.051246    2.385085    1.732314
C        -0.469589    1.783075    1.056365
C         0.782896    1.935271    1.939626
H         0.804991    2.978010    2.302824
N         1.989041    1.682975    1.179262
C         2.563228    2.603716    0.378395
C         3.826861    2.157792   -0.329641
O         2.100516    3.723431    0.204178
C         0.832095    1.008308    3.161718
N        -0.334158    0.842743    3.799009
C        -0.481843    0.000873    4.954604
O         1.886842    0.470034    3.503082
H         0.273544    0.336107   -3.799501
H        -1.834613    1.175025   -0.949495
H        -4.747259   -0.661422    3.849602
H        -0.812686   -2.191678    2.932016
H         2.158228   -2.760330    4.813399
H         2.918402   -1.491284    3.805292
H         3.151335   -3.251263    3.408070
H         3.451053   -1.997492    1.534417
H         2.918588    0.046806   -2.398266
H         3.220944   -1.571684   -3.095885
H         5.278490    0.541639   -2.260119
H         4.928167   -0.038989   -3.910032
H         6.384385   -1.137668   -0.683292
H         6.758401   -2.751355   -1.331194
H         4.740892   -2.765642    0.105104
H         4.379654   -3.287947   -1.557333
H         8.451806   -2.640228   -2.819946
H         8.205234   -3.089791   -4.533824
H         7.210236   -3.841367   -3.253644
H         1.144230   -1.128598   -2.003406
H        -0.921310   -1.383121   -0.708323
H        -5.186312   -0.944810   -2.576806
H        -3.998848   -1.159156   -4.786879
H        -1.720274   -0.202817   -5.053041
H         0.567139    3.680601   -1.393556
H        -1.987500    3.219520   -3.109208
H        -1.645890    4.611782   -1.917841
H        -0.239208    2.346100    0.142869
H        -0.540975    0.722239    0.766852
H         2.480221    0.824084    1.401116
H         4.105316    1.116367   -0.113584
H         4.648437    2.835799   -0.056962
H         3.636371    2.263365   -1.407264
H        -1.160926    1.322937    3.383698
H         0.398953   -0.649053    5.040898
H        -1.385939   -0.617899    4.847392
H        -0.568181    0.590242    5.884389
