89
-1 1
O         9.499416    1.808452  -17.559387
C         8.350258    2.061317  -17.164050
N         7.360312    1.226469  -17.776216
C         6.184742    0.605818  -17.401974
C         5.560391    0.757047  -16.155988
C         4.388942    0.060074  -15.889187
O         3.721042    0.265417  -14.688703
C         4.273668   -0.054518  -13.523386
C         3.559966    0.268684  -12.351401
C         2.257084    1.001008  -12.380853
F         2.350430    2.203247  -12.951397
F         1.306500    0.327789  -13.046348
F         1.787237    1.194304  -11.134733
C         4.152065   -0.159247  -11.168290
N         5.318039   -0.782380  -11.110567
C         5.935537   -0.985922  -12.287995
N         7.171313   -1.538227  -12.208457
C         8.204003   -1.557460  -13.159509
C         9.501254   -1.759644  -12.640381
O         9.567834   -2.047057  -11.319670
C        10.699665   -1.630468  -10.594642
C        10.619076   -1.621744  -13.453469
C        10.494631   -1.294207  -14.820118
N        11.641977   -1.030327  -15.586121
C        11.476344   -0.549458  -16.948928
C        12.743116    0.140825  -17.430569
N        13.912334   -0.708250  -17.254184
C        14.062874   -1.194711  -15.900091
C        12.791152   -1.899581  -15.440242
C        14.730131   -0.995853  -18.310648
C        15.922890   -1.901371  -18.039112
O        14.531002   -0.557616  -19.428959
C         9.201362   -1.173592  -15.342057
C         8.078006   -1.306208  -14.523769
N         5.422980   -0.688634  -13.487362
C         3.793360   -0.800038  -16.801926
C         4.418869   -0.954863  -18.039482
C         5.585904   -0.268082  -18.339333
C         8.060122    3.152643  -16.299504
C         6.842106    3.689370  -15.837858
S         6.401967    3.114906  -13.722462
C         7.761564    1.952198  -13.554678
C         8.812846    2.235759  -12.471979
H         8.970561    3.321398  -12.380073
N        10.072416    1.651870  -12.852655
C        11.269335    2.173452  -12.486794
C        12.473943    1.363684  -12.939203
O        11.384864    3.199977  -11.842074
C         8.354869    1.703621  -11.103295
N         7.209884    2.256221  -10.644339
C         6.616195    1.832236   -9.401111
O         8.959640    0.841115  -10.484646
H         7.815902    0.779454  -18.564088
H         5.962829    1.404711  -15.379827
H         3.648180    0.029167  -10.215227
H         7.508391   -1.637413  -11.255086
H        10.452922   -1.754214   -9.533452
H        10.900376   -0.565210  -10.782722
H        11.583386   -2.250272  -10.829481
H        11.603733   -1.704780  -12.997871
H        10.666243    0.192766  -17.004411
H        11.228779   -1.387803  -17.635596
H        12.881230    1.075864  -16.860146
H        12.660475    0.396425  -18.492214
H        14.262033   -0.343069  -15.223333
H        14.909543   -1.886491  -15.824723
H        12.918388   -2.199670  -14.393064
H        12.662221   -2.829874  -16.036886
H        16.591561   -1.480864  -17.273137
H        16.473971   -1.999902  -18.980848
H        15.606414   -2.900857  -17.704507
H         9.042331   -0.917811  -16.388334
H         7.088522   -1.151078  -14.947065
H         2.871059   -1.319486  -16.541897
H         3.983588   -1.622625  -18.786879
H         6.057457   -0.397695  -19.316992
H         8.980897    3.657194  -15.995115
H         5.908088    3.351096  -16.295538
H         6.840881    4.758152  -15.616549
H         8.284079    1.974774  -14.534374
H         7.372338    0.934734  -13.431507
H        10.055360    0.764754  -13.341069
H        12.279006    0.786443  -13.855495
H        12.752468    0.664604  -12.134630
H        13.314685    2.051193  -13.096727
H         6.710079    2.894995  -11.259819
H         7.259072    2.088403   -8.543293
H         6.450731    0.743727   -9.395766
H         5.648619    2.337109   -9.279257
