104
-1 1
O         4.009528   -8.265401   -1.489596
C         2.917519   -7.757905   -1.319252
N         2.491697   -7.404987   -0.054226
C         1.613971   -6.397141    0.351074
C         1.260025   -5.324372   -0.472716
C         0.388918   -4.328110   -0.018727
N         0.041559   -3.329084   -0.953115
C        -0.629702   -2.153600   -0.732086
N        -0.969746   -1.548210   -1.969160
C        -1.312188   -0.225241   -2.165055
N        -0.888385    0.679189   -1.304967
C        -1.221697    1.959576   -1.535017
N        -0.771003    2.820814   -0.579749
C        -0.889445    4.204625   -0.448144
C        -0.282785    4.766757    0.704442
O         0.321216    3.869917    1.523852
C         0.928091    4.312535    2.703965
C        -0.343781    6.129794    0.948191
C        -0.990133    6.999327    0.045697
N        -1.030668    8.379316    0.341876
C        -2.003415    9.184663   -0.372686
C        -2.194321   10.533564    0.311205
C        -0.873058   11.313043    0.412898
C         0.108840   10.399425    1.154569
C         0.260009    9.040794    0.479630
N        -0.408561   11.696700   -0.925467
C        -1.203579   12.749423   -1.551520
C        -0.852996   14.147865   -1.019375
N         0.565368   14.461953   -1.124746
C         1.372027   13.394843   -0.546475
C         1.003903   12.013530   -1.100583
C         0.987088   14.878437   -2.443016
C        -1.582385    6.443645   -1.087404
C        -1.540963    5.064528   -1.325540
N        -1.915987    2.413740   -2.582038
C        -2.320448    1.486438   -3.450895
C        -2.064792    0.136927   -3.306165
O        -0.929862   -1.697583    0.339349
C        -0.109222   -4.361794    1.286304
C         0.273263   -5.421210    2.107807
C         1.116250   -6.428958    1.661689
C         1.970391   -7.625674   -2.467170
C         0.694115   -8.014569   -2.408008
S        -1.422937  -10.308854   -0.308072
C        -0.930584   -9.366171    1.183206
C         0.121511  -10.064035    2.081088
H        -0.247761  -11.086695    2.272045
N         0.344404   -9.379237    3.338887
C        -0.532003   -9.325794    4.366822
C        -0.034730   -8.552202    5.581722
O        -1.646102   -9.816960    4.348657
C         1.502502  -10.152070    1.414569
N         1.525820  -10.854999    0.282640
C         2.699844  -11.027103   -0.532137
O         2.488810   -9.589262    1.917015
H         2.916910   -7.961038    0.692102
H         1.655140   -5.266630   -1.487719
H         0.405853   -3.475585   -1.884931
H        -1.201230   -2.177811   -2.726649
H        -0.273828    2.359609    0.173940
H         1.345775    3.425683    3.195651
H         0.199295    4.788894    3.382780
H         1.744223    5.027503    2.498681
H         0.082741    6.542531    1.861862
H        -2.960360    8.642694   -0.383711
H        -1.703387    9.358945   -1.427156
H        -2.582501   10.371528    1.329476
H        -2.960748   11.107921   -0.229148
H        -1.045362   12.202716    1.055354
H        -0.294114   10.240679    2.167052
H         1.093173   10.872278    1.284465
H         0.927951    8.410447    1.081743
H         0.744131    9.159295   -0.513220
H        -2.275493   12.551604   -1.412112
H        -1.023726   12.711906   -2.640410
H        -1.142046   14.216937    0.044446
H        -1.434370   14.917680   -1.551811
H         1.220688   13.399329    0.548588
H         2.437964   13.613635   -0.720832
H         1.638783   11.233355   -0.661375
H         1.212153   11.988796   -2.184880
H         0.395973   15.751649   -2.760697
H         0.893083   14.109088   -3.239868
H         2.043085   15.189313   -2.411978
H        -2.082802    7.077675   -1.819025
H        -2.008832    4.639233   -2.210383
H        -2.892165    1.848319   -4.312707
H        -2.428695   -0.599603   -4.022972
H        -0.769709   -3.575954    1.643532
H        -0.116925   -5.471561    3.126792
H         1.371433   -7.268924    2.305014
H         2.445725   -7.361674   -3.417395
H         0.078993   -8.038919   -3.311983
H         0.204623   -8.382235   -1.495425
H        -1.809149   -9.209348    1.824261
H        -0.541826   -8.369120    0.914142
H         1.313002   -9.097167    3.467724
H        -0.254917   -9.135916    6.485839
H        -0.603583   -7.612795    5.649499
H         1.037781   -8.313727    5.547398
H         0.578250  -11.030310   -0.129127
H         2.533289  -10.627771   -1.543879
H         2.961064  -12.094880   -0.621206
H         3.546230  -10.489402   -0.087959
