-1 1
 OpenBabel05232413493D

104107  0  0  1  0  0  0  0  0999 V2000
    4.0095   -8.2654   -1.4896 O   0  0  0  0  0  0  0  0  0  0  0  0
    2.9175   -7.7579   -1.3193 C   0  0  0  0  0  0  0  0  0  0  0  0
    2.4917   -7.4050   -0.0542 N   0  0  0  0  0  0  0  0  0  0  0  0
    1.6140   -6.3971    0.3511 C   0  0  0  0  0  0  0  0  0  0  0  0
    1.2600   -5.3244   -0.4727 C   0  0  0  0  0  0  0  0  0  0  0  0
    0.3889   -4.3281   -0.0187 C   0  0  0  0  0  0  0  0  0  0  0  0
    0.0416   -3.3291   -0.9531 N   0  0  0  0  0  0  0  0  0  0  0  0
   -0.6297   -2.1536   -0.7321 C   0  0  0  0  0  0  0  0  0  0  0  0
   -0.9697   -1.5482   -1.9692 N   0  0  0  0  0  0  0  0  0  0  0  0
   -1.3122   -0.2252   -2.1651 C   0  0  0  0  0  0  0  0  0  0  0  0
   -0.8884    0.6792   -1.3050 N   0  0  0  0  0  0  0  0  0  0  0  0
   -1.2217    1.9596   -1.5350 C   0  0  0  0  0  0  0  0  0  0  0  0
   -0.7710    2.8208   -0.5797 N   0  0  0  0  0  0  0  0  0  0  0  0
   -0.8894    4.2046   -0.4481 C   0  0  0  0  0  0  0  0  0  0  0  0
   -0.2828    4.7668    0.7044 C   0  0  0  0  0  0  0  0  0  0  0  0
    0.3212    3.8699    1.5239 O   0  0  0  0  0  0  0  0  0  0  0  0
    0.9281    4.3125    2.7040 C   0  0  0  0  0  0  0  0  0  0  0  0
   -0.3438    6.1298    0.9482 C   0  0  0  0  0  0  0  0  0  0  0  0
   -0.9901    6.9993    0.0457 C   0  0  0  0  0  0  0  0  0  0  0  0
   -1.0307    8.3793    0.3419 N   0  0  0  0  0  0  0  0  0  0  0  0
   -2.0034    9.1847   -0.3727 C   0  0  0  0  0  0  0  0  0  0  0  0
   -2.1943   10.5336    0.3112 C   0  0  0  0  0  0  0  0  0  0  0  0
   -0.8731   11.3130    0.4129 C   0  0  0  0  0  0  0  0  0  0  0  0
    0.1088   10.3994    1.1546 C   0  0  0  0  0  0  0  0  0  0  0  0
    0.2600    9.0408    0.4796 C   0  0  0  0  0  0  0  0  0  0  0  0
   -0.4086   11.6967   -0.9255 N   0  0  0  0  0  0  0  0  0  0  0  0
   -1.2036   12.7494   -1.5515 C   0  0  0  0  0  0  0  0  0  0  0  0
   -0.8530   14.1479   -1.0194 C   0  0  0  0  0  0  0  0  0  0  0  0
    0.5654   14.4620   -1.1247 N   0  0  0  0  0  0  0  0  0  0  0  0
    1.3720   13.3948   -0.5465 C   0  0  0  0  0  0  0  0  0  0  0  0
    1.0039   12.0135   -1.1006 C   0  0  0  0  0  0  0  0  0  0  0  0
    0.9871   14.8784   -2.4430 C   0  0  0  0  0  0  0  0  0  0  0  0
   -1.5824    6.4436   -1.0874 C   0  0  0  0  0  0  0  0  0  0  0  0
   -1.5410    5.0645   -1.3255 C   0  0  0  0  0  0  0  0  0  0  0  0
   -1.9160    2.4137   -2.5820 N   0  0  0  0  0  0  0  0  0  0  0  0
   -2.3204    1.4864   -3.4509 C   0  0  0  0  0  0  0  0  0  0  0  0
   -2.0648    0.1369   -3.3062 C   0  0  0  0  0  0  0  0  0  0  0  0
   -0.9299   -1.6976    0.3393 O   0  0  0  0  0  0  0  0  0  0  0  0
   -0.1092   -4.3618    1.2863 C   0  0  0  0  0  0  0  0  0  0  0  0
    0.2733   -5.4212    2.1078 C   0  0  0  0  0  0  0  0  0  0  0  0
    1.1162   -6.4290    1.6617 C   0  0  0  0  0  0  0  0  0  0  0  0
    1.9704   -7.6257   -2.4672 C   0  0  0  0  0  0  0  0  0  0  0  0
    0.6941   -8.0146   -2.4080 C   0  0  0  0  0  0  0  0  0  0  0  0
   -1.4229  -10.3089   -0.3081 S   0  0  0  0  0  1  0  0  0  0  0  0
   -0.9306   -9.3662    1.1832 C   0  0  0  0  0  0  0  0  0  0  0  0
    0.1215  -10.0640    2.0811 C   0  0  2  0  0  0  0  0  0  0  0  0
   -0.2478  -11.0867    2.2720 H   0  0  0  0  0  0  0  0  0  0  0  0
    0.3444   -9.3792    3.3389 N   0  0  0  0  0  0  0  0  0  0  0  0
   -0.5320   -9.3258    4.3668 C   0  0  0  0  0  0  0  0  0  0  0  0
   -0.0347   -8.5522    5.5817 C   0  0  0  0  0  0  0  0  0  0  0  0
   -1.6461   -9.8170    4.3487 O   0  0  0  0  0  0  0  0  0  0  0  0
    1.5025  -10.1521    1.4146 C   0  0  0  0  0  0  0  0  0  0  0  0
    1.5258  -10.8550    0.2826 N   0  0  0  0  0  0  0  0  0  0  0  0
    2.6998  -11.0271   -0.5321 C   0  0  0  0  0  0  0  0  0  0  0  0
    2.4888   -9.5893    1.9170 O   0  0  0  0  0  0  0  0  0  0  0  0
    2.9169   -7.9610    0.6921 H   0  0  0  0  0  0  0  0  0  0  0  0
    1.6551   -5.2666   -1.4877 H   0  0  0  0  0  0  0  0  0  0  0  0
    0.4059   -3.4756   -1.8849 H   0  0  0  0  0  0  0  0  0  0  0  0
   -1.2012   -2.1778   -2.7266 H   0  0  0  0  0  0  0  0  0  0  0  0
   -0.2738    2.3596    0.1739 H   0  0  0  0  0  0  0  0  0  0  0  0
    1.3458    3.4257    3.1957 H   0  0  0  0  0  0  0  0  0  0  0  0
    0.1993    4.7889    3.3828 H   0  0  0  0  0  0  0  0  0  0  0  0
    1.7442    5.0275    2.4987 H   0  0  0  0  0  0  0  0  0  0  0  0
    0.0827    6.5425    1.8619 H   0  0  0  0  0  0  0  0  0  0  0  0
   -2.9604    8.6427   -0.3837 H   0  0  0  0  0  0  0  0  0  0  0  0
   -1.7034    9.3589   -1.4272 H   0  0  0  0  0  0  0  0  0  0  0  0
   -2.5825   10.3715    1.3295 H   0  0  0  0  0  0  0  0  0  0  0  0
   -2.9607   11.1079   -0.2291 H   0  0  0  0  0  0  0  0  0  0  0  0
   -1.0454   12.2027    1.0554 H   0  0  0  0  0  0  0  0  0  0  0  0
   -0.2941   10.2407    2.1671 H   0  0  0  0  0  0  0  0  0  0  0  0
    1.0932   10.8723    1.2845 H   0  0  0  0  0  0  0  0  0  0  0  0
    0.9280    8.4104    1.0817 H   0  0  0  0  0  0  0  0  0  0  0  0
    0.7441    9.1593   -0.5132 H   0  0  0  0  0  0  0  0  0  0  0  0
   -2.2755   12.5516   -1.4121 H   0  0  0  0  0  0  0  0  0  0  0  0
   -1.0237   12.7119   -2.6404 H   0  0  0  0  0  0  0  0  0  0  0  0
   -1.1420   14.2169    0.0444 H   0  0  0  0  0  0  0  0  0  0  0  0
   -1.4344   14.9177   -1.5518 H   0  0  0  0  0  0  0  0  0  0  0  0
    1.2207   13.3993    0.5486 H   0  0  0  0  0  0  0  0  0  0  0  0
    2.4380   13.6136   -0.7208 H   0  0  0  0  0  0  0  0  0  0  0  0
    1.6388   11.2334   -0.6614 H   0  0  0  0  0  0  0  0  0  0  0  0
    1.2122   11.9888   -2.1849 H   0  0  0  0  0  0  0  0  0  0  0  0
    0.3960   15.7516   -2.7607 H   0  0  0  0  0  0  0  0  0  0  0  0
    0.8931   14.1091   -3.2399 H   0  0  0  0  0  0  0  0  0  0  0  0
    2.0431   15.1893   -2.4120 H   0  0  0  0  0  0  0  0  0  0  0  0
   -2.0828    7.0777   -1.8190 H   0  0  0  0  0  0  0  0  0  0  0  0
   -2.0088    4.6392   -2.2104 H   0  0  0  0  0  0  0  0  0  0  0  0
   -2.8922    1.8483   -4.3127 H   0  0  0  0  0  0  0  0  0  0  0  0
   -2.4287   -0.5996   -4.0230 H   0  0  0  0  0  0  0  0  0  0  0  0
   -0.7697   -3.5760    1.6435 H   0  0  0  0  0  0  0  0  0  0  0  0
   -0.1169   -5.4716    3.1268 H   0  0  0  0  0  0  0  0  0  0  0  0
    1.3714   -7.2689    2.3050 H   0  0  0  0  0  0  0  0  0  0  0  0
    2.4457   -7.3617   -3.4174 H   0  0  0  0  0  0  0  0  0  0  0  0
    0.0790   -8.0389   -3.3120 H   0  0  0  0  0  0  0  0  0  0  0  0
    0.2046   -8.3822   -1.4954 H   0  0  0  0  0  0  0  0  0  0  0  0
   -1.8091   -9.2093    1.8243 H   0  0  0  0  0  0  0  0  0  0  0  0
   -0.5418   -8.3691    0.9141 H   0  0  0  0  0  0  0  0  0  0  0  0
    1.3130   -9.0972    3.4677 H   0  0  0  0  0  0  0  0  0  0  0  0
   -0.2549   -9.1359    6.4858 H   0  0  0  0  0  0  0  0  0  0  0  0
   -0.6036   -7.6128    5.6495 H   0  0  0  0  0  0  0  0  0  0  0  0
    1.0378   -8.3137    5.5474 H   0  0  0  0  0  0  0  0  0  0  0  0
    0.5783  -11.0303   -0.1291 H   0  0  0  0  0  0  0  0  0  0  0  0
    2.5333  -10.6278   -1.5439 H   0  0  0  0  0  0  0  0  0  0  0  0
    2.9611  -12.0949   -0.6212 H   0  0  0  0  0  0  0  0  0  0  0  0
    3.5462  -10.4894   -0.0880 H   0  0  0  0  0  0  0  0  0  0  0  0
  1  2  2  0  0  0  0
  2  3  1  0  0  0  0
  3  4  1  0  0  0  0
  3 56  1  0  0  0  0
  4 41  1  0  0  0  0
  5  6  1  0  0  0  0
  5  4  2  0  0  0  0
  6 39  2  0  0  0  0
  7  8  1  0  0  0  0
  7  6  1  0  0  0  0
  8 38  2  0  0  0  0
  9  8  1  0  0  0  0
 10  9  1  0  0  0  0
 10 11  1  0  0  0  0
 12 11  2  0  0  0  0
 12 13  1  0  0  0  0
 13 14  1  0  0  0  0
 13 60  1  0  0  0  0
 14 15  1  0  0  0  0
 15 18  2  0  0  0  0
 15 16  1  0  0  0  0
 16 17  1  0  0  0  0
 17 61  1  0  0  0  0
 17 62  1  0  0  0  0
 18 64  1  0  0  0  0
 19 20  1  0  0  0  0
 19 18  1  0  0  0  0
 20 25  1  0  0  0  0
 21 22  1  0  0  0  0
 21 20  1  0  0  0  0
 22 23  1  0  0  0  0
 22 67  1  0  0  0  0
 23 69  1  0  0  0  0
 23 24  1  0  0  0  0
 24 71  1  0  0  0  0
 24 70  1  0  0  0  0
 25 72  1  0  0  0  0
 25 24  1  0  0  0  0
 26 23  1  0  0  0  0
 27 74  1  0  0  0  0
 27 28  1  0  0  0  0
 27 26  1  0  0  0  0
 28 76  1  0  0  0  0
 29 28  1  0  0  0  0
 29 30  1  0  0  0  0
 30 78  1  0  0  0  0
 31 26  1  0  0  0  0
 31 80  1  0  0  0  0
 31 30  1  0  0  0  0
 32 84  1  0  0  0  0
 32 29  1  0  0  0  0
 33 19  2  0  0  0  0
 34 33  1  0  0  0  0
 34 14  2  0  0  0  0
 35 12  1  0  0  0  0
 36 37  1  0  0  0  0
 36 35  2  0  0  0  0
 37 10  2  0  0  0  0
 39 89  1  0  0  0  0
 39 40  1  0  0  0  0
 40 90  1  0  0  0  0
 41 40  2  0  0  0  0
 41 91  1  0  0  0  0
 42 43  2  0  0  0  0
 42  2  1  0  0  0  0
 43 94  1  0  0  0  0
 44 45  1  0  0  0  0
 45 95  1  0  0  0  0
 45 46  1  0  0  0  0
 46 47  1  1  0  0  0
 46 48  1  0  0  0  0
 48 97  1  0  0  0  0
 48 49  1  0  0  0  0
 49 50  1  0  0  0  0
 50 99  1  0  0  0  0
 50 98  1  0  0  0  0
 51 49  2  0  0  0  0
 52 55  2  0  0  0  0
 52 46  1  0  0  0  0
 53 52  1  0  0  0  0
 54104  1  0  0  0  0
 54 53  1  0  0  0  0
 57  5  1  0  0  0  0
 58  7  1  0  0  0  0
 59  9  1  0  0  0  0
 63 17  1  0  0  0  0
 65 21  1  0  0  0  0
 66 21  1  0  0  0  0
 68 22  1  0  0  0  0
 73 25  1  0  0  0  0
 75 27  1  0  0  0  0
 77 28  1  0  0  0  0
 79 30  1  0  0  0  0
 81 31  1  0  0  0  0
 82 32  1  0  0  0  0
 83 32  1  0  0  0  0
 85 33  1  0  0  0  0
 86 34  1  0  0  0  0
 87 36  1  0  0  0  0
 88 37  1  0  0  0  0
 92 42  1  0  0  0  0
 93 43  1  0  0  0  0
 96 45  1  0  0  0  0
100 50  1  0  0  0  0
101 53  1  0  0  0  0
102 54  1  0  0  0  0
103 54  1  0  0  0  0
M  END
