91
-1 1
O        -1.180308    6.879188    4.553811
C        -1.065654    6.522010    3.394454
N        -2.170135    6.035743    2.724884
C        -2.337672    5.202045    1.595727
C        -1.348933    4.331055    1.128809
C        -1.608010    3.472516    0.052346
N        -0.563997    2.660363   -0.408721
C        -0.731907    1.366806   -0.836765
N         0.442221    0.847390   -1.417154
C         0.741643   -0.491057   -1.520406
N         0.187609   -1.347664   -0.676530
C         0.525057   -2.637891   -0.791784
N        -0.118467   -3.449654    0.109920
C        -0.019945   -4.813642    0.355979
C        -0.825381   -5.321331    1.403600
O        -1.591936   -4.393182    2.034988
C        -2.403100   -4.782870    3.102676
C        -0.796889   -6.667669    1.749066
C         0.028821   -7.568474    1.055695
N         0.091784   -8.936791    1.405360
C         1.388129   -9.478464    1.763220
C         1.717563   -9.436751    3.263660
N         1.496780   -8.150155    3.884149
C         1.472623   -8.229503    5.323339
C         2.377821   -7.106343    3.410627
C        -1.017934   -9.498612    2.128986
C         0.800814   -7.072782    0.003418
C         0.791185   -5.718000   -0.332390
N         1.392460   -3.155628   -1.659586
C         1.955404   -2.272825   -2.495358
C         1.676195   -0.924400   -2.493734
O        -1.766787    0.747030   -0.756399
C        -2.875493    3.468045   -0.546151
C        -3.855863    4.329278   -0.069866
C        -3.597410    5.203475    0.983491
C         0.226954    6.689979    2.677378
C         0.348927    7.084181    1.409604
S         1.963822    4.682512   -0.490840
C         2.165269    4.641270   -2.308243
C         0.871873    4.326437   -3.089102
H         0.355013    3.504096   -2.570346
N         1.132946    3.914959   -4.450263
C         1.585016    2.687260   -4.745428
C         1.728191    2.356666   -6.216364
O         1.881442    1.863075   -3.883977
C        -0.130021    5.484105   -3.169522
N        -0.499463    5.973915   -1.977426
C        -1.498839    6.995742   -1.825337
O        -0.562030    5.872287   -4.252224
H        -3.000759    6.136834    3.298903
H        -0.367108    4.296642    1.598404
H         0.386438    3.087604   -0.351292
H         1.027454    1.473926   -1.974116
H        -0.760736   -2.944236    0.708560
H        -2.922777   -3.881429    3.450326
H        -1.810335   -5.199249    3.936876
H        -3.153962   -5.532406    2.794820
H        -1.379721   -7.019532    2.597324
H         2.158143   -8.941643    1.193349
H         1.452830  -10.534982    1.442459
H         2.766238   -9.799274    3.396850
H         1.079084  -10.168903    3.785425
H         0.718445   -8.961594    5.653158
H         1.201172   -7.252029    5.750887
H         2.451335   -8.528917    5.766093
H         2.103893   -6.148991    3.877812
H         2.279040   -6.967316    2.325435
H         3.448242   -7.309575    3.644758
H        -0.946798  -10.598733    2.107666
H        -1.963701   -9.215061    1.643841
H        -1.070410   -9.185925    3.192576
H         1.422915   -7.757776   -0.576747
H         1.400112   -5.334669   -1.148492
H         2.670291   -2.684135   -3.217045
H         2.116357   -0.219237   -3.198245
H        -3.081666    2.783572   -1.367017
H        -4.843456    4.329603   -0.537271
H        -4.372237    5.884715    1.343918
H         1.104569    6.578235    3.319313
H         1.325771    7.247521    0.952100
H        -0.528459    7.225858    0.773174
H         2.885042    3.853411   -2.571646
H         2.574542    5.596813   -2.678774
H         0.731147    4.529576   -5.154781
H         1.113136    1.473031   -6.437615
H         2.775268    2.086915   -6.413480
H         1.434892    3.182398   -6.878425
H         0.051963    5.645656   -1.164342
H        -2.033989    7.109971   -2.777074
H        -1.055691    7.971407   -1.560625
H        -2.216246    6.708078   -1.040639
