91
-1 1
O        -0.554643    7.715609    3.486353
C        -0.395925    7.298529    2.333034
N        -1.661246    6.985160    1.635463
C        -2.083812    5.757091    1.181957
C        -1.192588    4.693888    0.967348
C        -1.603569    3.499580    0.365070
N        -0.577266    2.587469    0.051653
C        -0.711501    1.292016   -0.388438
N         0.505418    0.816318   -0.918013
C         0.833663   -0.508961   -1.085798
N         0.256017   -1.425595   -0.327749
C         0.622547   -2.701733   -0.510607
N        -0.046063   -3.580144    0.300619
C         0.055761   -4.959693    0.451870
C        -0.792022   -5.544949    1.421939
O        -1.592785   -4.668638    2.082800
C        -2.455179   -5.137891    3.076839
C        -0.769332   -6.913088    1.668705
C         0.093336   -7.757601    0.949517
N         0.143735   -9.146831    1.196049
C         1.427803   -9.724987    1.540795
C         1.715222   -9.806981    3.048114
N         1.480580   -8.572836    3.762931
C         1.404434   -8.767188    5.189586
C         2.384815   -7.502875    3.406460
C        -0.987457   -9.759834    1.840921
C         0.910278   -7.182029   -0.026313
C         0.905132   -5.806500   -0.261925
N         1.540972   -3.145345   -1.369018
C         2.129304   -2.201811   -2.113714
C         1.824543   -0.860450   -2.036287
O        -1.736317    0.655524   -0.368588
C        -2.948387    3.298867    0.029656
C        -3.846502    4.333270    0.303539
C        -3.442759    5.542800    0.853619
C         0.804051    7.179405    1.620683
C         0.950857    6.990221    0.173451
S         1.864085    5.367321   -0.283668
C         1.813364    5.319970   -2.095696
C         0.577841    4.626348   -2.725981
H         0.206212    3.864236   -2.025961
N         0.918819    3.983872   -3.976425
C         1.571246    2.814082   -4.035658
C         1.865266    2.271683   -5.416072
O         1.918544    2.197756   -3.029467
C        -0.531558    5.627710   -3.065575
N        -1.394437    5.890426   -2.075324
C        -2.413628    6.908507   -2.153748
O        -0.566020    6.143478   -4.177345
H        -2.393898    7.508741    2.104318
H        -0.153524    4.825287    1.260983
H         0.363689    2.961133    0.154071
H         1.059457    1.476103   -1.472129
H        -0.725391   -3.127642    0.901029
H        -2.996638   -4.265428    3.462733
H        -1.902632   -5.613021    3.906958
H        -3.184914   -5.863769    2.676226
H        -1.388667   -7.328216    2.460500
H         2.215536   -9.148955    1.037625
H         1.496038  -10.751907    1.136119
H         2.758277  -10.184912    3.181023
H         1.059713  -10.575057    3.490870
H         0.634051   -9.516062    5.432605
H         1.124204   -7.824644    5.684499
H         2.364641   -9.110239    5.640735
H         2.098330   -6.582388    3.936064
H         2.329281   -7.279736    2.332282
H         3.444327   -7.732620    3.664442
H        -0.914278  -10.855064    1.738803
H        -1.918379   -9.440061    1.349683
H        -1.071945   -9.527687    2.922708
H         1.562689   -7.818845   -0.627394
H         1.548178   -5.363197   -1.019187
H         2.888638   -2.553176   -2.821647
H         2.296519   -0.100013   -2.658059
H        -3.273384    2.362717   -0.416555
H        -4.902802    4.189782    0.059202
H        -4.168791    6.341979    1.025223
H         1.692847    7.455611    2.194129
H         1.583556    7.749492   -0.317016
H        -0.015591    6.962403   -0.342632
H         2.700398    4.747900   -2.400081
H         1.926294    6.338710   -2.502423
H         0.648692    4.507087   -4.805524
H         1.377316    1.291656   -5.514817
H         2.948678    2.111518   -5.505762
H         1.524520    2.931089   -6.225235
H        -1.297398    5.387575   -1.194588
H        -2.220045    7.531758   -3.035965
H        -2.385536    7.524484   -1.242572
H        -3.416023    6.461111   -2.240283
