-1 1
 OpenBabel05232413493D

 91 92  0  0  1  0  0  0  0  0999 V2000
   -1.1803    6.8792    4.5538 O   0  0  0  0  0  0  0  0  0  0  0  0
   -1.0657    6.5220    3.3945 C   0  0  0  0  0  0  0  0  0  0  0  0
   -2.1701    6.0357    2.7249 N   0  0  0  0  0  0  0  0  0  0  0  0
   -2.3377    5.2020    1.5957 C   0  0  0  0  0  0  0  0  0  0  0  0
   -1.3489    4.3311    1.1288 C   0  0  0  0  0  0  0  0  0  0  0  0
   -1.6080    3.4725    0.0523 C   0  0  0  0  0  0  0  0  0  0  0  0
   -0.5640    2.6604   -0.4087 N   0  0  0  0  0  0  0  0  0  0  0  0
   -0.7319    1.3668   -0.8368 C   0  0  0  0  0  0  0  0  0  0  0  0
    0.4422    0.8474   -1.4172 N   0  0  0  0  0  0  0  0  0  0  0  0
    0.7416   -0.4911   -1.5204 C   0  0  0  0  0  0  0  0  0  0  0  0
    0.1876   -1.3477   -0.6765 N   0  0  0  0  0  0  0  0  0  0  0  0
    0.5251   -2.6379   -0.7918 C   0  0  0  0  0  0  0  0  0  0  0  0
   -0.1185   -3.4497    0.1099 N   0  0  0  0  0  0  0  0  0  0  0  0
   -0.0199   -4.8136    0.3560 C   0  0  0  0  0  0  0  0  0  0  0  0
   -0.8254   -5.3213    1.4036 C   0  0  0  0  0  0  0  0  0  0  0  0
   -1.5919   -4.3932    2.0350 O   0  0  0  0  0  0  0  0  0  0  0  0
   -2.4031   -4.7829    3.1027 C   0  0  0  0  0  0  0  0  0  0  0  0
   -0.7969   -6.6677    1.7491 C   0  0  0  0  0  0  0  0  0  0  0  0
    0.0288   -7.5685    1.0557 C   0  0  0  0  0  0  0  0  0  0  0  0
    0.0918   -8.9368    1.4054 N   0  0  0  0  0  0  0  0  0  0  0  0
    1.3881   -9.4785    1.7632 C   0  0  0  0  0  0  0  0  0  0  0  0
    1.7176   -9.4368    3.2637 C   0  0  0  0  0  0  0  0  0  0  0  0
    1.4968   -8.1502    3.8841 N   0  0  0  0  0  0  0  0  0  0  0  0
    1.4726   -8.2295    5.3233 C   0  0  0  0  0  0  0  0  0  0  0  0
    2.3778   -7.1063    3.4106 C   0  0  0  0  0  0  0  0  0  0  0  0
   -1.0179   -9.4986    2.1290 C   0  0  0  0  0  0  0  0  0  0  0  0
    0.8008   -7.0728    0.0034 C   0  0  0  0  0  0  0  0  0  0  0  0
    0.7912   -5.7180   -0.3324 C   0  0  0  0  0  0  0  0  0  0  0  0
    1.3925   -3.1556   -1.6596 N   0  0  0  0  0  0  0  0  0  0  0  0
    1.9554   -2.2728   -2.4954 C   0  0  0  0  0  0  0  0  0  0  0  0
    1.6762   -0.9244   -2.4937 C   0  0  0  0  0  0  0  0  0  0  0  0
   -1.7668    0.7470   -0.7564 O   0  0  0  0  0  0  0  0  0  0  0  0
   -2.8755    3.4680   -0.5462 C   0  0  0  0  0  0  0  0  0  0  0  0
   -3.8559    4.3293   -0.0699 C   0  0  0  0  0  0  0  0  0  0  0  0
   -3.5974    5.2035    0.9835 C   0  0  0  0  0  0  0  0  0  0  0  0
    0.2270    6.6900    2.6774 C   0  0  0  0  0  0  0  0  0  0  0  0
    0.3489    7.0842    1.4096 C   0  0  0  0  0  0  0  0  0  0  0  0
    1.9638    4.6825   -0.4908 S   0  0  0  0  0  1  0  0  0  0  0  0
    2.1653    4.6413   -2.3082 C   0  0  0  0  0  0  0  0  0  0  0  0
    0.8719    4.3264   -3.0891 C   0  0  2  0  0  0  0  0  0  0  0  0
    0.3550    3.5041   -2.5703 H   0  0  0  0  0  0  0  0  0  0  0  0
    1.1329    3.9150   -4.4503 N   0  0  0  0  0  0  0  0  0  0  0  0
    1.5850    2.6873   -4.7454 C   0  0  0  0  0  0  0  0  0  0  0  0
    1.7282    2.3567   -6.2164 C   0  0  0  0  0  0  0  0  0  0  0  0
    1.8814    1.8631   -3.8840 O   0  0  0  0  0  0  0  0  0  0  0  0
   -0.1300    5.4841   -3.1695 C   0  0  0  0  0  0  0  0  0  0  0  0
   -0.4995    5.9739   -1.9774 N   0  0  0  0  0  0  0  0  0  0  0  0
   -1.4988    6.9957   -1.8253 C   0  0  0  0  0  0  0  0  0  0  0  0
   -0.5620    5.8723   -4.2522 O   0  0  0  0  0  0  0  0  0  0  0  0
   -3.0008    6.1368    3.2989 H   0  0  0  0  0  0  0  0  0  0  0  0
   -0.3671    4.2966    1.5984 H   0  0  0  0  0  0  0  0  0  0  0  0
    0.3864    3.0876   -0.3513 H   0  0  0  0  0  0  0  0  0  0  0  0
    1.0275    1.4739   -1.9741 H   0  0  0  0  0  0  0  0  0  0  0  0
   -0.7607   -2.9442    0.7086 H   0  0  0  0  0  0  0  0  0  0  0  0
   -2.9228   -3.8814    3.4503 H   0  0  0  0  0  0  0  0  0  0  0  0
   -1.8103   -5.1992    3.9369 H   0  0  0  0  0  0  0  0  0  0  0  0
   -3.1540   -5.5324    2.7948 H   0  0  0  0  0  0  0  0  0  0  0  0
   -1.3797   -7.0195    2.5973 H   0  0  0  0  0  0  0  0  0  0  0  0
    2.1581   -8.9416    1.1933 H   0  0  0  0  0  0  0  0  0  0  0  0
    1.4528  -10.5350    1.4425 H   0  0  0  0  0  0  0  0  0  0  0  0
    2.7662   -9.7993    3.3969 H   0  0  0  0  0  0  0  0  0  0  0  0
    1.0791  -10.1689    3.7854 H   0  0  0  0  0  0  0  0  0  0  0  0
    0.7184   -8.9616    5.6532 H   0  0  0  0  0  0  0  0  0  0  0  0
    1.2012   -7.2520    5.7509 H   0  0  0  0  0  0  0  0  0  0  0  0
    2.4513   -8.5289    5.7661 H   0  0  0  0  0  0  0  0  0  0  0  0
    2.1039   -6.1490    3.8778 H   0  0  0  0  0  0  0  0  0  0  0  0
    2.2790   -6.9673    2.3254 H   0  0  0  0  0  0  0  0  0  0  0  0
    3.4482   -7.3096    3.6448 H   0  0  0  0  0  0  0  0  0  0  0  0
   -0.9468  -10.5987    2.1077 H   0  0  0  0  0  0  0  0  0  0  0  0
   -1.9637   -9.2151    1.6438 H   0  0  0  0  0  0  0  0  0  0  0  0
   -1.0704   -9.1859    3.1926 H   0  0  0  0  0  0  0  0  0  0  0  0
    1.4229   -7.7578   -0.5767 H   0  0  0  0  0  0  0  0  0  0  0  0
    1.4001   -5.3347   -1.1485 H   0  0  0  0  0  0  0  0  0  0  0  0
    2.6703   -2.6841   -3.2170 H   0  0  0  0  0  0  0  0  0  0  0  0
    2.1164   -0.2192   -3.1982 H   0  0  0  0  0  0  0  0  0  0  0  0
   -3.0817    2.7836   -1.3670 H   0  0  0  0  0  0  0  0  0  0  0  0
   -4.8435    4.3296   -0.5373 H   0  0  0  0  0  0  0  0  0  0  0  0
   -4.3722    5.8847    1.3439 H   0  0  0  0  0  0  0  0  0  0  0  0
    1.1046    6.5782    3.3193 H   0  0  0  0  0  0  0  0  0  0  0  0
    1.3258    7.2475    0.9521 H   0  0  0  0  0  0  0  0  0  0  0  0
   -0.5285    7.2259    0.7732 H   0  0  0  0  0  0  0  0  0  0  0  0
    2.8850    3.8534   -2.5716 H   0  0  0  0  0  0  0  0  0  0  0  0
    2.5745    5.5968   -2.6788 H   0  0  0  0  0  0  0  0  0  0  0  0
    0.7311    4.5296   -5.1548 H   0  0  0  0  0  0  0  0  0  0  0  0
    1.1131    1.4730   -6.4376 H   0  0  0  0  0  0  0  0  0  0  0  0
    2.7753    2.0869   -6.4135 H   0  0  0  0  0  0  0  0  0  0  0  0
    1.4349    3.1824   -6.8784 H   0  0  0  0  0  0  0  0  0  0  0  0
    0.0520    5.6457   -1.1643 H   0  0  0  0  0  0  0  0  0  0  0  0
   -2.0340    7.1100   -2.7771 H   0  0  0  0  0  0  0  0  0  0  0  0
   -1.0557    7.9714   -1.5606 H   0  0  0  0  0  0  0  0  0  0  0  0
   -2.2162    6.7081   -1.0406 H   0  0  0  0  0  0  0  0  0  0  0  0
  2  1  2  0  0  0  0
  3 50  1  0  0  0  0
  3  2  1  0  0  0  0
  4  3  1  0  0  0  0
  5  4  1  0  0  0  0
  5 51  1  0  0  0  0
  6  5  2  0  0  0  0
  7 52  1  0  0  0  0
  7  6  1  0  0  0  0
  8 32  2  0  0  0  0
  8  7  1  0  0  0  0
  9  8  1  0  0  0  0
 10  9  1  0  0  0  0
 10 11  1  0  0  0  0
 12 11  2  0  0  0  0
 12 13  1  0  0  0  0
 13 14  1  0  0  0  0
 13 54  1  0  0  0  0
 14 15  1  0  0  0  0
 15 18  2  0  0  0  0
 15 16  1  0  0  0  0
 16 17  1  0  0  0  0
 17 55  1  0  0  0  0
 17 56  1  0  0  0  0
 18 58  1  0  0  0  0
 19 20  1  0  0  0  0
 19 18  1  0  0  0  0
 20 21  1  0  0  0  0
 20 26  1  0  0  0  0
 21 22  1  0  0  0  0
 22 61  1  0  0  0  0
 22 62  1  0  0  0  0
 22 23  1  0  0  0  0
 23 24  1  0  0  0  0
 24 63  1  0  0  0  0
 24 64  1  0  0  0  0
 24 65  1  0  0  0  0
 25 68  1  0  0  0  0
 25 66  1  0  0  0  0
 25 23  1  0  0  0  0
 26 71  1  0  0  0  0
 27 19  2  0  0  0  0
 28 27  1  0  0  0  0
 28 14  2  0  0  0  0
 29 12  1  0  0  0  0
 30 31  1  0  0  0  0
 30 29  2  0  0  0  0
 31 10  2  0  0  0  0
 33 34  2  0  0  0  0
 33  6  1  0  0  0  0
 34 35  1  0  0  0  0
 35 78  1  0  0  0  0
 35  4  2  0  0  0  0
 36 79  1  0  0  0  0
 36  2  1  0  0  0  0
 37 36  2  0  0  0  0
 39 38  1  0  0  0  0
 40 41  1  1  0  0  0
 40 39  1  0  0  0  0
 42 40  1  0  0  0  0
 43 42  1  0  0  0  0
 43 45  2  0  0  0  0
 44 43  1  0  0  0  0
 46 40  1  0  0  0  0
 46 47  1  0  0  0  0
 47 48  1  0  0  0  0
 47 88  1  0  0  0  0
 48 90  1  0  0  0  0
 48 91  1  0  0  0  0
 49 46  2  0  0  0  0
 53  9  1  0  0  0  0
 57 17  1  0  0  0  0
 59 21  1  0  0  0  0
 60 21  1  0  0  0  0
 67 25  1  0  0  0  0
 69 26  1  0  0  0  0
 70 26  1  0  0  0  0
 72 27  1  0  0  0  0
 73 28  1  0  0  0  0
 74 30  1  0  0  0  0
 75 31  1  0  0  0  0
 76 33  1  0  0  0  0
 77 34  1  0  0  0  0
 80 37  1  0  0  0  0
 81 37  1  0  0  0  0
 82 39  1  0  0  0  0
 83 39  1  0  0  0  0
 84 42  1  0  0  0  0
 85 44  1  0  0  0  0
 86 44  1  0  0  0  0
 87 44  1  0  0  0  0
 89 48  1  0  0  0  0
M  END
