100
-1 1
O         6.111076   14.187626    1.956180
C         5.554788   14.975349    1.195040
N         4.293292   15.549070    1.641055
C         3.086824   15.235867    1.011447
C         3.026532   14.300516   -0.034624
C         1.829962   14.055345   -0.707940
N         1.727861   13.129862   -1.763576
C         2.657611   12.553061   -2.616253
N         3.838591   13.274222   -2.748646
C         5.043658   12.825642   -3.247377
N         5.239010   11.537535   -3.461324
C         6.437587   11.166919   -3.933439
N         6.541641    9.813615   -4.140379
C         7.594345    9.031266   -4.596960
C         7.340140    7.637436   -4.691936
O         6.092774    7.258783   -4.309699
C         5.742022    5.907984   -4.353814
C         8.322203    6.760184   -5.124825
C         9.593972    7.230570   -5.507648
N        10.559381    6.289560   -5.945820
C        11.948387    6.705239   -5.910235
C        12.872570    5.500040   -6.042801
C        12.614459    4.726141   -7.346268
C        11.126597    4.359605   -7.351887
C        10.223354    5.574682   -7.168152
N        13.022054    5.539522   -8.498979
C        14.465456    5.638626   -8.674042
C        15.051675    4.417737   -9.384155
O        14.418048    4.186955  -10.618726
C        13.023877    4.048800  -10.481809
C        12.423324    5.273354   -9.798432
C         9.842330    8.597516   -5.416779
C         8.860282    9.484595   -4.958663
N         7.466132   11.967746   -4.198350
C         7.255354   13.268491   -3.956629
C         6.065966   13.776001   -3.484381
O         2.388507   11.539095   -3.216137
C         0.657520   14.712449   -0.306411
C         0.702081   15.585670    0.775446
C         1.898305   15.857988    1.431257
C         6.001525   15.423138   -0.074521
C         5.565446   16.626377   -0.696703
S         3.942263   16.577302   -2.063258
C         4.217658   18.161491   -2.898797
C         3.243399   19.285766   -2.480085
H         2.218113   18.909529   -2.632277
N         3.440829   20.471891   -3.278727
C         2.998635   20.600684   -4.549915
C         3.272445   21.948879   -5.195855
O         2.430751   19.709118   -5.157024
C         3.409670   19.734199   -1.016967
N         3.023116   18.842139   -0.086996
C         3.251374   19.042909    1.323842
O         3.861545   20.843913   -0.755871
H         4.233365   15.507807    2.654480
H         3.936918   13.772980   -0.311962
H         0.825343   12.684315   -1.871508
H         3.808225   14.276130   -2.541128
H         5.692175    9.311778   -3.910337
H         4.700391    5.840301   -4.016341
H         6.375327    5.298246   -3.684985
H         5.814180    5.499823   -5.377942
H         8.133090    5.686988   -5.148761
H        12.135066    7.209398   -4.950798
H        12.189121    7.426204   -6.719827
H        12.704635    4.819638   -5.192539
H        13.918323    5.835414   -5.977884
H        13.186843    3.774865   -7.303928
H        10.958591    3.676037   -6.504967
H        10.844332    3.803908   -8.258416
H         9.176747    5.244478   -7.116499
H        10.299531    6.248060   -8.049606
H        14.962679    5.780398   -7.704159
H        14.683043    6.535212   -9.280370
H        14.960155    3.520273   -8.737248
H        16.121227    4.566750   -9.594128
H        12.784048    3.132925   -9.900555
H        12.613585    3.920878  -11.494587
H        11.332371    5.182663   -9.723980
H        12.618854    6.151184  -10.439157
H        10.809846    9.005679   -5.710261
H         9.058778   10.551727   -4.885832
H         8.097686   13.938813   -4.158336
H         5.907322   14.835702   -3.282831
H        -0.277655   14.534814   -0.842290
H        -0.214462   16.085349    1.099584
H         1.926702   16.566423    2.261666
H         6.815850   14.848753   -0.522207
H         6.281808   17.064278   -1.403002
H         5.145528   17.382316   -0.026726
H         4.092880   18.022035   -3.981046
H         5.253831   18.497111   -2.715916
H         3.836301   21.250774   -2.758169
H         3.953655   21.796365   -6.045414
H         3.712511   22.685878   -4.510123
H         2.328616   22.340997   -5.599158
H         2.805493   17.898240   -0.415486
H         3.802148   18.184067    1.738411
H         2.301211   19.151962    1.872262
H         3.839289   19.959898    1.456923
