100
-1 1
O        -0.470405    2.113782    5.652359
C        -0.930818    2.968897    4.892526
N        -2.227237    3.558649    5.282765
C        -3.406497    3.154051    4.669600
C        -3.402129    2.213727    3.622950
C        -4.574041    1.896386    2.938451
N        -4.621617    0.966461    1.883018
C        -3.670641    0.391965    1.054181
N        -2.460253    1.073596    0.994898
C        -1.255455    0.603240    0.508198
N        -1.111437   -0.676192    0.218263
C         0.084624   -1.073902   -0.237543
N         0.133754   -2.415331   -0.525946
C         1.167074   -3.219059   -0.989675
C         0.855527   -4.592476   -1.171274
O        -0.420695   -4.933381   -0.854467
C        -0.828553   -6.262452   -0.984290
C         1.813566   -5.489393   -1.617495
C         3.118412   -5.058159   -1.928598
N         4.058626   -6.017382   -2.381100
C         5.461551   -5.665171   -2.277034
C         6.338567   -6.901854   -2.436471
C         6.095508   -7.602258   -3.783640
C         4.594794   -7.903860   -3.856339
C         3.737602   -6.659871   -3.646853
N         6.574488   -6.753713   -4.882214
C         8.026064   -6.695357   -4.998543
C         8.601065   -7.905077   -5.736309
O         8.009092   -8.064693   -7.002462
C         6.606933   -8.161475   -6.924285
C         6.019247   -6.946212   -6.213677
C         3.422634   -3.710695   -1.753981
C         2.464125   -2.805419   -1.281831
N         1.156981   -0.307908   -0.417670
C         0.996571    0.983473   -0.100157
C        -0.184524    1.516934    0.365454
O        -3.943501   -0.594806    0.411895
C        -5.789976    2.483577    3.326016
C        -5.809516    3.352219    4.411936
C        -4.639641    3.694346    5.082176
C        -0.395059    3.472531    3.698854
C        -0.820639    4.708423    3.047644
S        -2.114152    4.508065    1.610127
C        -2.081931    6.129158    0.798383
C        -3.261305    7.062414    1.149353
H        -4.194721    6.508604    0.955824
N        -3.236499    8.255653    0.338120
C        -3.620189    8.284430   -0.958469
C        -3.549054    9.647762   -1.624971
O        -3.990406    7.296041   -1.568191
C        -3.239292    7.546083    2.608060
N        -3.571030    6.629731    3.534331
C        -3.451076    6.882619    4.950662
O        -2.933306    8.703959    2.870190
H        -2.302457    3.575783    6.296116
H        -2.457023    1.734782    3.376215
H        -5.521054    0.527293    1.731686
H        -2.454619    2.050962    1.282806
H        -0.744959   -2.889482   -0.354190
H        -1.884007   -6.299984   -0.687524
H        -0.248070   -6.935053   -0.327918
H        -0.736281   -6.618828   -2.025984
H         1.578104   -6.549895   -1.706650
H         5.633986   -5.216544   -1.287820
H         5.761777   -4.917048   -3.040808
H         6.111481   -7.613545   -1.626553
H         7.394388   -6.616065   -2.319195
H         6.626828   -8.577932   -3.768074
H         4.368261   -8.617163   -3.048480
H         4.321952   -8.404947   -4.796906
H         2.676806   -6.945738   -3.647339
H         3.874928   -5.951114   -4.492359
H         8.489335   -6.608894   -4.005680
H         8.294712   -5.782718   -5.558652
H         8.456550   -8.824548   -5.131337
H         9.682100   -7.782816   -5.899517
H         6.315357   -9.091569   -6.391278
H         6.232799   -8.234579   -7.956321
H         4.923892   -7.003918   -6.184142
H         6.267423   -6.049998   -6.809046
H         4.417373   -3.332058   -1.990420
H         2.706829   -1.754142   -1.142545
H         1.874385    1.625055   -0.231119
H        -0.298185    2.569349    0.626403
H        -6.707877    2.248558    2.782144
H        -6.758906    3.790669    4.730654
H        -4.666732    4.395169    5.919073
H         0.499496    2.965689    3.328446
H         0.003478    5.220149    2.527246
H        -1.310944    5.412605    3.730863
H        -2.117876    5.965504   -0.287090
H        -1.129036    6.629892    1.038276
H        -2.984595    9.094912    0.853801
H        -2.816972    9.597731   -2.443759
H        -3.268904   10.459887   -0.940203
H        -4.527466    9.868205   -2.073717
H        -3.698858    5.666307    3.225207
H        -2.871125    6.073020    5.418645
H        -4.440255    6.939823    5.433472
H        -2.936729    7.841469    5.091722
