100
-1 1
O        -0.426511    1.794209    6.069406
C        -1.196927    2.050125    5.161541
N        -2.490687    2.428145    5.464127
C        -3.684197    2.444943    4.711691
C        -3.922313    1.543749    3.674155
C        -5.125715    1.593560    2.964868
N        -5.363616    0.704875    1.902085
C        -4.486480    0.255670    0.926133
N        -3.419525    1.117798    0.714097
C        -2.259595    0.783669    0.061200
N        -1.808312   -0.460462    0.120987
C        -0.652598   -0.728143   -0.500385
N        -0.276867   -2.045706   -0.404561
C         0.842642   -2.720769   -0.873637
C         0.904924   -4.107902   -0.576533
O        -0.145495   -4.584776    0.141432
C        -0.182603   -5.937394    0.486296
C         1.982113   -4.878440   -0.985558
C         3.035336   -4.311673   -1.730424
N         4.110421   -5.146649   -2.125136
C         5.353197   -4.493762   -2.489300
C         6.498292   -5.499699   -2.521823
C         6.223203   -6.642845   -3.512789
C         4.879855   -7.259577   -3.108874
C         3.760448   -6.226322   -3.036386
N         6.239715   -6.127203   -4.887528
C         7.571711   -5.811085   -5.387383
C         8.315822   -7.049587   -5.888210
O         7.571423   -7.737660   -6.863514
C         6.290003   -8.091839   -6.400920
C         5.527241   -6.859942   -5.923664
C         2.973125   -2.951908   -2.023534
C         1.897374   -2.165244   -1.593300
N         0.115506    0.140810   -1.154662
C        -0.348425    1.396451   -1.195937
C        -1.534781    1.792625   -0.618402
O        -4.712806   -0.755249    0.302108
C        -6.123381    2.496986    3.342278
C        -5.899101    3.359278    4.408714
C        -4.682915    3.353090    5.083345
C        -0.719220    2.035609    3.750384
C        -1.138383    2.828191    2.762050
S        -4.055955    4.268797    1.051859
C        -2.654716    5.220059    0.363613
C        -2.558813    6.672790    0.875499
H        -3.567942    7.113708    0.792820
N        -1.619583    7.462661    0.109626
C        -1.866887    7.946433   -1.127304
C        -0.769024    8.831645   -1.700580
O        -2.873802    7.699444   -1.768312
C        -2.086923    6.785205    2.337707
N        -2.797768    6.076554    3.232198
C        -2.438725    6.024585    4.624860
O        -1.123020    7.488491    2.631572
H        -2.601561    2.565268    6.463144
H        -3.167727    0.808571    3.398744
H        -6.270173    0.258410    1.853141
H        -3.594788    2.146591    0.848633
H        -0.944896   -2.611258    0.105044
H        -1.115464   -6.097299    1.041014
H         0.669403   -6.219685    1.130177
H        -0.181211   -6.587386   -0.407019
H         2.043428   -5.931500   -0.711096
H         5.567798   -3.715315   -1.742619
H         5.289288   -3.998246   -3.481018
H         6.629381   -5.931904   -1.516803
H         7.434671   -4.976238   -2.765582
H         7.000546   -7.423111   -3.366600
H         5.011511   -7.694558   -2.105778
H         4.594042   -8.090126   -3.771199
H         2.840400   -6.712070   -2.683501
H         3.538959   -5.827232   -4.050121
H         8.165349   -5.307697   -4.611436
H         7.470167   -5.099938   -6.225676
H         8.544962   -7.726267   -5.038501
H         9.271903   -6.766775   -6.353138
H         6.370471   -8.832353   -5.576684
H         5.769720   -8.578082   -7.239536
H         4.515340   -7.130348   -5.596665
H         5.404119   -6.180193   -6.785064
H         3.761588   -2.473528   -2.605122
H         1.853071   -1.102658   -1.822245
H         0.270588    2.121728   -1.735296
H        -1.912026    2.812808   -0.678077
H        -7.051851    2.543476    2.770839
H        -6.670524    4.077383    4.694394
H        -4.494855    4.058070    5.895797
H         0.143117    1.377627    3.612453
H        -0.641135    2.795443    1.789229
H        -1.990735    3.510933    2.840844
H        -2.762181    5.290706   -0.728138
H        -1.687911    4.726081    0.573375
H        -0.846703    7.814841    0.669440
H        -0.372502    8.351348   -2.606769
H         0.058431    9.020174   -1.002544
H        -1.215419    9.788393   -2.006081
H        -3.485308    5.406993    2.839119
H        -2.142332    5.006169    4.924302
H        -3.280546    6.339669    5.263439
H        -1.592594    6.703061    4.792753
