-1 1
 OpenBabel05192410563D

 81 84  0  0  1  0  0  0  0  0999 V2000
   -3.8186    3.3878   -1.5208 O   0  0  0  0  0  0  0  0  0  0  0  0
   -3.2367    2.8450   -2.4992 C   0  0  0  0  0  0  0  0  0  0  0  0
   -1.8123    2.8506   -2.3713 N   0  0  0  0  0  0  0  0  0  0  0  0
   -0.7630    2.6908   -3.2652 C   0  0  0  0  0  0  0  0  0  0  0  0
    0.4219    2.1186   -2.7854 C   0  0  0  0  0  0  0  0  0  0  0  0
    1.5278    1.9209   -3.6154 C   0  0  0  0  0  0  0  0  0  0  0  0
    2.6293    1.2675   -3.0219 N   0  0  0  0  0  0  0  0  0  0  0  0
    3.8645    1.0962   -3.5421 C   0  0  0  0  0  0  0  0  0  0  0  0
    4.7856    0.4212   -2.7035 N   0  0  0  0  0  0  0  0  0  0  0  0
    4.6959   -0.1174   -1.4412 C   0  0  0  0  0  0  0  0  0  0  0  0
    3.5322   -0.1258   -0.8121 N   0  0  0  0  0  0  0  0  0  0  0  0
    3.4771   -0.6652    0.4312 C   0  0  0  0  0  0  0  0  0  0  0  0
    2.2490   -0.6492    0.9912 N   0  0  0  0  0  0  0  0  0  0  0  0
    1.7803   -1.1602    2.2140 C   0  0  0  0  0  0  0  0  0  0  0  0
    0.3926   -1.0773    2.4343 C   0  0  0  0  0  0  0  0  0  0  0  0
   -0.1754   -1.5509    3.6030 C   0  0  0  0  0  0  0  0  0  0  0  0
    0.6086   -2.1409    4.6100 C   0  0  0  0  0  0  0  0  0  0  0  0
   -0.0005   -2.6006    5.7990 N   0  0  0  0  0  0  0  0  0  0  0  0
    0.8550   -2.9922    6.8959 C   0  0  0  0  0  0  0  0  0  0  0  0
    0.0329   -3.1243    8.1714 C   0  0  0  0  0  0  0  0  0  0  0  0
   -1.0372   -4.0180    8.0151 O   0  0  0  0  0  0  0  0  0  0  0  0
   -1.8842   -3.6151    6.9683 C   0  0  0  0  0  0  0  0  0  0  0  0
   -1.1314   -3.5028    5.6525 C   0  0  0  0  0  0  0  0  0  0  0  0
    1.9874   -2.2217    4.3837 C   0  0  0  0  0  0  0  0  0  0  0  0
    2.5726   -1.7340    3.2116 C   0  0  0  0  0  0  0  0  0  0  0  0
    4.5268   -1.1848    1.0805 N   0  0  0  0  0  0  0  0  0  0  0  0
    5.6883   -1.1687    0.4303 C   0  0  0  0  0  0  0  0  0  0  0  0
    5.8580   -0.6562   -0.8405 C   0  0  0  0  0  0  0  0  0  0  0  0
    4.2649    1.4609   -4.6302 O   0  0  0  0  0  0  0  0  0  0  0  0
    1.4762    2.3229   -4.9550 C   0  0  0  0  0  0  0  0  0  0  0  0
    0.2932    2.9007   -5.4240 C   0  0  0  0  0  0  0  0  0  0  0  0
   -0.8191    3.0896   -4.6124 C   0  0  0  0  0  0  0  0  0  0  0  0
   -3.8584    2.2010   -3.5722 C   0  0  0  0  0  3  0  0  0  0  0  0
   -3.3200    1.0658   -4.3314 C   0  0  0  0  0  0  0  0  0  0  0  0
   -3.8999   -0.6684   -3.6992 S   0  0  0  0  0  0  0  0  0  0  0  0
   -3.9991   -0.3460   -1.9215 C   0  0  0  0  0  0  0  0  0  0  0  0
   -2.6567   -0.0886   -1.2308 C   0  0  2  0  0  0  0  0  0  0  0  0
   -2.1982    0.8038   -1.6749 H   0  0  0  0  0  0  0  0  0  0  0  0
   -1.7494   -1.1950   -1.4186 N   0  0  0  0  0  0  0  0  0  0  0  0
   -0.4548   -1.1000   -1.0991 C   0  0  0  0  0  0  0  0  0  0  0  0
    0.4198   -2.3004   -1.3662 C   0  0  0  0  0  0  0  0  0  0  0  0
    0.0111   -0.0812   -0.5798 O   0  0  0  0  0  0  0  0  0  0  0  0
   -2.8729    0.2122    0.2631 C   0  0  0  0  0  0  0  0  0  0  0  0
   -3.3595    1.4441    0.5053 N   0  0  0  0  0  0  0  0  0  0  0  0
   -3.6322    1.8668    1.8544 C   0  0  0  0  0  0  0  0  0  0  0  0
   -2.6365   -0.6086    1.1399 O   0  0  0  0  0  0  0  0  0  0  0  0
   -1.5425    3.0176   -1.4092 H   0  0  0  0  0  0  0  0  0  0  0  0
    0.4473    1.7583   -1.7552 H   0  0  0  0  0  0  0  0  0  0  0  0
    2.4893    0.8752   -2.0857 H   0  0  0  0  0  0  0  0  0  0  0  0
    5.6912    0.3712   -3.1522 H   0  0  0  0  0  0  0  0  0  0  0  0
    1.5082   -0.2918    0.3675 H   0  0  0  0  0  0  0  0  0  0  0  0
   -0.2635   -0.6268    1.6869 H   0  0  0  0  0  0  0  0  0  0  0  0
   -1.2548   -1.4380    3.7200 H   0  0  0  0  0  0  0  0  0  0  0  0
    1.6280   -2.2243    7.0503 H   0  0  0  0  0  0  0  0  0  0  0  0
    1.3741   -3.9571    6.6986 H   0  0  0  0  0  0  0  0  0  0  0  0
   -0.3441   -2.1217    8.4595 H   0  0  0  0  0  0  0  0  0  0  0  0
    0.6594   -3.5077    8.9900 H   0  0  0  0  0  0  0  0  0  0  0  0
   -2.3460   -2.6352    7.2056 H   0  0  0  0  0  0  0  0  0  0  0  0
   -2.6830   -4.3665    6.8900 H   0  0  0  0  0  0  0  0  0  0  0  0
   -1.8149   -3.1317    4.8781 H   0  0  0  0  0  0  0  0  0  0  0  0
   -0.7924   -4.5147    5.3393 H   0  0  0  0  0  0  0  0  0  0  0  0
    2.6436   -2.6820    5.1237 H   0  0  0  0  0  0  0  0  0  0  0  0
    3.6464   -1.8116    3.0603 H   0  0  0  0  0  0  0  0  0  0  0  0
    6.5446   -1.5959    0.9653 H   0  0  0  0  0  0  0  0  0  0  0  0
    6.8245   -0.6559   -1.3442 H   0  0  0  0  0  0  0  0  0  0  0  0
    2.3359    2.1780   -5.6044 H   0  0  0  0  0  0  0  0  0  0  0  0
    0.2433    3.2150   -6.4702 H   0  0  0  0  0  0  0  0  0  0  0  0
   -1.7427    3.5228   -4.9986 H   0  0  0  0  0  0  0  0  0  0  0  0
   -4.9440    2.3390   -3.5885 H   0  0  0  0  0  0  0  0  0  0  0  0
   -2.2269    1.0011   -4.3353 H   0  0  0  0  0  0  0  0  0  0  0  0
   -3.6636    1.0082   -5.3761 H   0  0  0  0  0  0  0  0  0  0  0  0
   -4.5018   -1.2149   -1.4669 H   0  0  0  0  0  0  0  0  0  0  0  0
   -4.6322    0.5394   -1.7710 H   0  0  0  0  0  0  0  0  0  0  0  0
   -2.0818   -1.9929   -1.9453 H   0  0  0  0  0  0  0  0  0  0  0  0
    1.3453   -1.9559   -1.8478 H   0  0  0  0  0  0  0  0  0  0  0  0
   -0.0654   -3.0602   -1.9932 H   0  0  0  0  0  0  0  0  0  0  0  0
    0.6922   -2.7512   -0.3997 H   0  0  0  0  0  0  0  0  0  0  0  0
   -3.5634    2.1187   -0.2582 H   0  0  0  0  0  0  0  0  0  0  0  0
   -2.7461    1.7413    2.4972 H   0  0  0  0  0  0  0  0  0  0  0  0
   -4.4523    1.2870    2.3111 H   0  0  0  0  0  0  0  0  0  0  0  0
   -3.9157    2.9272    1.8367 H   0  0  0  0  0  0  0  0  0  0  0  0
  2  3  1  0  0  0  0
  2  1  2  0  0  0  0
  3 47  1  0  0  0  0
  4  5  1  0  0  0  0
  4  3  1  0  0  0  0
  5 48  1  0  0  0  0
  6  7  1  0  0  0  0
  6  5  2  0  0  0  0
  7 49  1  0  0  0  0
  8  7  1  0  0  0  0
  8  9  1  0  0  0  0
  9 10  1  0  0  0  0
 10 28  2  0  0  0  0
 10 11  1  0  0  0  0
 11 12  2  0  0  0  0
 12 13  1  0  0  0  0
 12 26  1  0  0  0  0
 13 14  1  0  0  0  0
 14 15  2  0  0  0  0
 14 25  1  0  0  0  0
 15 16  1  0  0  0  0
 16 53  1  0  0  0  0
 16 17  2  0  0  0  0
 17 18  1  0  0  0  0
 18 19  1  0  0  0  0
 19 54  1  0  0  0  0
 19 20  1  0  0  0  0
 20 56  1  0  0  0  0
 20 57  1  0  0  0  0
 21 20  1  0  0  0  0
 22 58  1  0  0  0  0
 22 21  1  0  0  0  0
 23 18  1  0  0  0  0
 23 22  1  0  0  0  0
 24 17  1  0  0  0  0
 24 62  1  0  0  0  0
 25 24  2  0  0  0  0
 27 64  1  0  0  0  0
 27 26  2  0  0  0  0
 28 27  1  0  0  0  0
 29  8  2  0  0  0  0
 30  6  1  0  0  0  0
 31 30  2  0  0  0  0
 31 32  1  0  0  0  0
 32  4  2  0  0  0  0
 33  2  1  0  0  0  0
 34 35  1  0  0  0  0
 34 33  1  0  0  0  0
 35 36  1  0  0  0  0
 36 73  1  0  0  0  0
 36 72  1  0  0  0  0
 36 37  1  0  0  0  0
 37 38  1  6  0  0  0
 37 43  1  0  0  0  0
 39 37  1  0  0  0  0
 39 40  1  0  0  0  0
 40 42  2  0  0  0  0
 41 40  1  0  0  0  0
 41 77  1  0  0  0  0
 43 44  1  0  0  0  0
 43 46  2  0  0  0  0
 44 45  1  0  0  0  0
 45 80  1  0  0  0  0
 45 79  1  0  0  0  0
 50  9  1  0  0  0  0
 51 13  1  0  0  0  0
 52 15  1  0  0  0  0
 55 19  1  0  0  0  0
 59 22  1  0  0  0  0
 60 23  1  0  0  0  0
 61 23  1  0  0  0  0
 63 25  1  0  0  0  0
 65 28  1  0  0  0  0
 66 30  1  0  0  0  0
 67 31  1  0  0  0  0
 68 32  1  0  0  0  0
 69 33  1  0  0  0  0
 70 34  1  0  0  0  0
 71 34  1  0  0  0  0
 74 39  1  0  0  0  0
 75 41  1  0  0  0  0
 76 41  1  0  0  0  0
 78 44  1  0  0  0  0
 81 45  1  0  0  0  0
M  END
