-1 1
 OpenBabel05232414493D

 81 83  0  0  1  0  0  0  0  0999 V2000
   -0.8865   -9.1519   -1.1887 O   0  0  0  0  0  0  0  0  0  0  0  0
   -0.5745  -10.2449   -0.7189 C   0  0  0  0  0  0  0  0  0  0  0  0
    0.8057  -10.3508   -0.3566 N   0  0  0  0  0  0  0  0  0  0  0  0
    1.6893  -11.4044   -0.2246 C   0  0  0  0  0  0  0  0  0  0  0  0
    2.8562  -11.2116    0.5373 C   0  0  0  0  0  0  0  0  0  0  0  0
    3.6903  -12.2848    0.8514 C   0  0  0  0  0  0  0  0  0  0  0  0
    4.7333  -12.1571    1.7968 N   0  0  0  0  0  0  0  0  0  0  0  0
    5.5827  -11.1105    1.8974 C   0  0  0  0  0  0  0  0  0  0  0  0
    6.4394  -11.1418    3.0248 N   0  0  0  0  0  0  0  0  0  0  0  0
    6.3783  -11.8695    4.1943 C   0  0  0  0  0  0  0  0  0  0  0  0
    5.4518  -12.8038    4.3147 N   0  0  0  0  0  0  0  0  0  0  0  0
    5.3408  -13.4530    5.4934 C   0  0  0  0  0  0  0  0  0  0  0  0
    4.2930  -14.2970    5.5717 N   0  0  0  0  0  0  0  0  0  0  0  0
    3.8249  -15.0017    6.6941 C   0  0  0  0  0  0  0  0  0  0  0  0
    2.4395  -15.0343    6.9142 C   0  0  0  0  0  0  0  0  0  0  0  0
    1.9123  -15.7670    7.9672 C   0  0  0  0  0  0  0  0  0  0  0  0
    2.7411  -16.4888    8.8431 C   0  0  0  0  0  0  0  0  0  0  0  0
    2.1670  -17.2089    9.9154 N   0  0  0  0  0  0  0  0  0  0  0  0
    3.0446  -17.6980   10.9554 C   0  0  0  0  0  0  0  0  0  0  0  0
    2.2218  -18.1292   12.1625 C   0  0  0  0  0  0  0  0  0  0  0  0
    1.2553  -19.0874   11.8203 O   0  0  0  0  0  0  0  0  0  0  0  0
    0.3863  -18.6007   10.8294 C   0  0  0  0  0  0  0  0  0  0  0  0
    1.1440  -18.1858    9.5781 C   0  0  0  0  0  0  0  0  0  0  0  0
    4.1238  -16.4301    8.6269 C   0  0  0  0  0  0  0  0  0  0  0  0
    4.6603  -15.6943    7.5696 C   0  0  0  0  0  0  0  0  0  0  0  0
    6.1702  -13.2908    6.5335 N   0  0  0  0  0  0  0  0  0  0  0  0
    7.1187  -12.3716    6.3814 C   0  0  0  0  0  0  0  0  0  0  0  0
    7.2813  -11.5973    5.2446 C   0  0  0  0  0  0  0  0  0  0  0  0
    5.6912  -10.1849    1.1181 O   0  0  0  0  0  0  0  0  0  0  0  0
    3.4169  -13.5581    0.3489 C   0  0  0  0  0  0  0  0  0  0  0  0
    2.3217  -13.7263   -0.4945 C   0  0  0  0  0  0  0  0  0  0  0  0
    1.4714  -12.6701   -0.7983 C   0  0  0  0  0  0  0  0  0  0  0  0
   -1.5126  -11.3144   -0.5152 C   0  0  0  0  0  3  0  0  0  0  0  0
   -1.4413  -12.4863    0.2492 C   0  0  0  0  0  3  0  0  0  0  0  0
   -2.0419  -12.4079    2.4352 S   0  0  0  0  0  1  0  0  0  0  0  0
   -0.5498  -11.6000    3.0703 C   0  0  0  0  0  0  0  0  0  0  0  0
    0.7200  -12.4967    3.1436 C   0  0  2  0  0  0  0  0  0  0  0  0
    1.2560  -12.4429    2.1833 H   0  0  0  0  0  0  0  0  0  0  0  0
    0.3750  -13.8669    3.4027 N   0  0  0  0  0  0  0  0  0  0  0  0
    1.3014  -14.8276    3.4813 C   0  0  0  0  0  0  0  0  0  0  0  0
    0.7972  -16.2362    3.6983 C   0  0  0  0  0  0  0  0  0  0  0  0
    2.5105  -14.5929    3.4125 O   0  0  0  0  0  0  0  0  0  0  0  0
    1.6324  -11.9523    4.2459 C   0  0  0  0  0  0  0  0  0  0  0  0
    2.4388  -10.9452    3.8359 N   0  0  0  0  0  0  0  0  0  0  0  0
    3.3126  -10.2370    4.7335 C   0  0  0  0  0  0  0  0  0  0  0  0
    1.5843  -12.3371    5.4014 O   0  0  0  0  0  0  0  0  0  0  0  0
    1.2139   -9.4232   -0.3319 H   0  0  0  0  0  0  0  0  0  0  0  0
    3.0877  -10.2168    0.9257 H   0  0  0  0  0  0  0  0  0  0  0  0
    4.7161  -12.8001    2.5985 H   0  0  0  0  0  0  0  0  0  0  0  0
    7.1009  -10.3766    2.9964 H   0  0  0  0  0  0  0  0  0  0  0  0
    3.6642  -14.2892    4.7572 H   0  0  0  0  0  0  0  0  0  0  0  0
    1.7916  -14.4171    6.2853 H   0  0  0  0  0  0  0  0  0  0  0  0
    0.8345  -15.7398    8.1416 H   0  0  0  0  0  0  0  0  0  0  0  0
    3.7329  -16.8959   11.2612 H   0  0  0  0  0  0  0  0  0  0  0  0
    3.6606  -18.5597   10.6134 H   0  0  0  0  0  0  0  0  0  0  0  0
    1.7360  -17.2348   12.6030 H   0  0  0  0  0  0  0  0  0  0  0  0
    2.8720  -18.5823   12.9248 H   0  0  0  0  0  0  0  0  0  0  0  0
   -0.1824  -17.7293   11.2130 H   0  0  0  0  0  0  0  0  0  0  0  0
   -0.3251  -19.4064   10.5978 H   0  0  0  0  0  0  0  0  0  0  0  0
    0.4379  -17.7602    8.8531 H   0  0  0  0  0  0  0  0  0  0  0  0
    1.5965  -19.0878    9.1106 H   0  0  0  0  0  0  0  0  0  0  0  0
    4.8101  -16.9748    9.2764 H   0  0  0  0  0  0  0  0  0  0  0  0
    5.7390  -15.6580    7.4239 H   0  0  0  0  0  0  0  0  0  0  0  0
    7.7972  -12.2355    7.2321 H   0  0  0  0  0  0  0  0  0  0  0  0
    8.0577  -10.8368    5.1636 H   0  0  0  0  0  0  0  0  0  0  0  0
    4.0504  -14.3985    0.6334 H   0  0  0  0  0  0  0  0  0  0  0  0
    2.1176  -14.7118   -0.9203 H   0  0  0  0  0  0  0  0  0  0  0  0
    0.6107  -12.8115   -1.4509 H   0  0  0  0  0  0  0  0  0  0  0  0
   -2.4947  -11.0343   -0.9057 H   0  0  0  0  0  0  0  0  0  0  0  0
   -0.4782  -12.9376    0.4886 H   0  0  0  0  0  0  0  0  0  0  0  0
   -2.2108  -13.2376    0.0522 H   0  0  0  0  0  0  0  0  0  0  0  0
   -0.7784  -11.2203    4.0775 H   0  0  0  0  0  0  0  0  0  0  0  0
   -0.3120  -10.7325    2.4334 H   0  0  0  0  0  0  0  0  0  0  0  0
   -0.6260  -14.0667    3.3087 H   0  0  0  0  0  0  0  0  0  0  0  0
    1.2983  -16.9026    2.9835 H   0  0  0  0  0  0  0  0  0  0  0  0
   -0.2921  -16.3263    3.5919 H   0  0  0  0  0  0  0  0  0  0  0  0
    1.0899  -16.5525    4.7108 H   0  0  0  0  0  0  0  0  0  0  0  0
    2.4533  -10.7268    2.8477 H   0  0  0  0  0  0  0  0  0  0  0  0
    3.5658  -10.8958    5.5750 H   0  0  0  0  0  0  0  0  0  0  0  0
    2.8424   -9.3254    5.1408 H   0  0  0  0  0  0  0  0  0  0  0  0
    4.2361   -9.9487    4.2121 H   0  0  0  0  0  0  0  0  0  0  0  0
  1  2  2  0  0  0  0
  2 33  1  0  0  0  0
  2  3  1  0  0  0  0
  3 47  1  0  0  0  0
  3  4  1  0  0  0  0
  4  5  1  0  0  0  0
  5  6  2  0  0  0  0
  5 48  1  0  0  0  0
  6  7  1  0  0  0  0
  7  8  1  0  0  0  0
  7 49  1  0  0  0  0
  8  9  1  0  0  0  0
  9 10  1  0  0  0  0
 10 11  1  0  0  0  0
 10 28  2  0  0  0  0
 11 12  2  0  0  0  0
 12 13  1  0  0  0  0
 12 26  1  0  0  0  0
 13 14  1  0  0  0  0
 14 15  2  0  0  0  0
 14 25  1  0  0  0  0
 15 16  1  0  0  0  0
 16 53  1  0  0  0  0
 16 17  2  0  0  0  0
 17 18  1  0  0  0  0
 18 19  1  0  0  0  0
 19 54  1  0  0  0  0
 19 20  1  0  0  0  0
 20 56  1  0  0  0  0
 20 57  1  0  0  0  0
 21 20  1  0  0  0  0
 22 58  1  0  0  0  0
 22 21  1  0  0  0  0
 23 18  1  0  0  0  0
 23 22  1  0  0  0  0
 24 17  1  0  0  0  0
 24 62  1  0  0  0  0
 25 24  2  0  0  0  0
 27 26  2  0  0  0  0
 27 64  1  0  0  0  0
 28 27  1  0  0  0  0
 29  8  2  0  0  0  0
 30 66  1  0  0  0  0
 30  6  1  0  0  0  0
 31 30  2  0  0  0  0
 32 31  1  0  0  0  0
 32  4  2  0  0  0  0
 33 34  1  0  0  0  0
 34 70  1  0  0  0  0
 35 36  1  0  0  0  0
 36 37  1  0  0  0  0
 36 72  1  0  0  0  0
 37 38  1  6  0  0  0
 37 39  1  0  0  0  0
 37 43  1  0  0  0  0
 39 40  1  0  0  0  0
 40 41  1  0  0  0  0
 41 77  1  0  0  0  0
 42 40  2  0  0  0  0
 43 46  2  0  0  0  0
 44 43  1  0  0  0  0
 44 45  1  0  0  0  0
 45 80  1  0  0  0  0
 45 79  1  0  0  0  0
 50  9  1  0  0  0  0
 51 13  1  0  0  0  0
 52 15  1  0  0  0  0
 55 19  1  0  0  0  0
 59 22  1  0  0  0  0
 60 23  1  0  0  0  0
 61 23  1  0  0  0  0
 63 25  1  0  0  0  0
 65 28  1  0  0  0  0
 67 31  1  0  0  0  0
 68 32  1  0  0  0  0
 69 33  1  0  0  0  0
 71 34  1  0  0  0  0
 73 36  1  0  0  0  0
 74 39  1  0  0  0  0
 75 41  1  0  0  0  0
 76 41  1  0  0  0  0
 78 44  1  0  0  0  0
 81 45  1  0  0  0  0
M  END
