81
-1 1
O        -3.818555    3.387755   -1.520802
C        -3.236672    2.845040   -2.499217
N        -1.812344    2.850593   -2.371304
C        -0.763020    2.690758   -3.265203
C         0.421905    2.118603   -2.785406
C         1.527817    1.920943   -3.615390
N         2.629345    1.267461   -3.021911
C         3.864458    1.096196   -3.542130
N         4.785627    0.421152   -2.703453
C         4.695870   -0.117352   -1.441176
N         3.532197   -0.125849   -0.812116
C         3.477149   -0.665191    0.431171
N         2.249012   -0.649241    0.991175
C         1.780340   -1.160180    2.214004
C         0.392574   -1.077329    2.434300
C        -0.175399   -1.550945    3.603021
C         0.608564   -2.140911    4.609952
N        -0.000540   -2.600650    5.799034
C         0.855002   -2.992234    6.895850
C         0.032926   -3.124284    8.171422
O        -1.037153   -4.018009    8.015141
C        -1.884206   -3.615140    6.968327
C        -1.131440   -3.502842    5.652530
C         1.987433   -2.221714    4.383717
C         2.572575   -1.733952    3.211606
N         4.526755   -1.184772    1.080523
C         5.688294   -1.168682    0.430280
C         5.857976   -0.656161   -0.840510
O         4.264877    1.460918   -4.630236
C         1.476239    2.322905   -4.955007
C         0.293236    2.900711   -5.424026
C        -0.819139    3.089571   -4.612390
C        -3.858412    2.201028   -3.572151
C        -3.320040    1.065839   -4.331387
S        -3.899883   -0.668406   -3.699222
C        -3.999066   -0.346000   -1.921486
C        -2.656659   -0.088582   -1.230831
H        -2.198246    0.803799   -1.674863
N        -1.749422   -1.195011   -1.418564
C        -0.454814   -1.099980   -1.099052
C         0.419800   -2.300425   -1.366225
O         0.011114   -0.081214   -0.579793
C        -2.872879    0.212213    0.263050
N        -3.359524    1.444096    0.505321
C        -3.632231    1.866844    1.854431
O        -2.636522   -0.608632    1.139914
H        -1.542539    3.017574   -1.409185
H         0.447267    1.758349   -1.755196
H         2.489299    0.875163   -2.085675
H         5.691226    0.371229   -3.152160
H         1.508230   -0.291787    0.367457
H        -0.263501   -0.626750    1.686869
H        -1.254805   -1.437987    3.720015
H         1.627962   -2.224334    7.050311
H         1.374150   -3.957104    6.698605
H        -0.344081   -2.121671    8.459460
H         0.659409   -3.507739    8.989996
H        -2.345967   -2.635233    7.205588
H        -2.682965   -4.366517    6.889997
H        -1.814873   -3.131688    4.878066
H        -0.792410   -4.514679    5.339344
H         2.643618   -2.681951    5.123706
H         3.646359   -1.811642    3.060337
H         6.544628   -1.595868    0.965251
H         6.824486   -0.655879   -1.344204
H         2.335872    2.178007   -5.604376
H         0.243295    3.214968   -6.470175
H        -1.742723    3.522784   -4.998584
H        -4.943963    2.339000   -3.588464
H        -2.226870    1.001070   -4.335317
H        -3.663617    1.008200   -5.376083
H        -4.501806   -1.214942   -1.466946
H        -4.632163    0.539411   -1.771026
H        -2.081818   -1.992949   -1.945299
H         1.345257   -1.955928   -1.847813
H        -0.065356   -3.060152   -1.993241
H         0.692182   -2.751154   -0.399714
H        -3.563433    2.118716   -0.258171
H        -2.746087    1.741316    2.497177
H        -4.452336    1.287016    2.311092
H        -3.915734    2.927151    1.836747
