-1 1
 OpenBabel05232414493D

 72 74  0  0  1  0  0  0  0  0999 V2000
    8.4559    7.4809   -4.1272 O   0  0  0  0  0  0  0  0  0  0  0  0
    8.2121    8.3620   -3.2951 C   0  0  0  0  0  0  0  0  0  0  0  0
    8.4258    9.6967   -3.7528 N   0  0  0  0  0  0  0  0  0  0  0  0
    7.8195   10.9012   -3.4658 C   0  0  0  0  0  0  0  0  0  0  0  0
    6.5493   10.9870   -2.8723 C   0  0  0  0  0  0  0  0  0  0  0  0
    6.0299   12.2281   -2.5074 C   0  0  0  0  0  0  0  0  0  0  0  0
    4.8001   12.3417   -1.8201 N   0  0  0  0  0  0  0  0  0  0  0  0
    3.6842   11.6117   -2.0531 C   0  0  0  0  0  0  0  0  0  0  0  0
    2.5765   11.9306   -1.2211 N   0  0  0  0  0  0  0  0  0  0  0  0
    2.4626   12.7334   -0.1140 C   0  0  0  0  0  0  0  0  0  0  0  0
    3.4976   13.4840    0.2390 N   0  0  0  0  0  0  0  0  0  0  0  0
    3.4095   14.1933    1.3690 C   0  0  0  0  0  0  0  0  0  0  0  0
    4.5144   14.8736    1.7686 N   0  0  0  0  0  0  0  0  0  0  0  0
    5.8202   14.6806    1.2513 C   0  0  0  0  0  0  0  0  0  0  0  0
    6.4030   13.3934    1.2399 C   0  0  0  0  0  0  0  0  0  0  0  0
    5.6638   12.3879    1.7413 O   0  0  0  0  0  0  0  0  0  0  0  0
    5.9870   11.0672    1.3673 C   0  0  0  0  0  0  0  0  0  0  0  0
    7.6968   13.2324    0.7362 C   0  0  0  0  0  0  0  0  0  0  0  0
    8.4273   14.3372    0.3003 C   0  0  0  0  0  0  0  0  0  0  0  0
    7.8612   15.6093    0.3276 C   0  0  0  0  0  0  0  0  0  0  0  0
    6.5555   15.7707    0.7898 C   0  0  0  0  0  0  0  0  0  0  0  0
    2.3175   14.3061    2.1362 N   0  0  0  0  0  0  0  0  0  0  0  0
    1.2660   13.5936    1.7390 C   0  0  0  0  0  0  0  0  0  0  0  0
    1.2651   12.7599    0.6327 C   0  0  0  0  0  0  0  0  0  0  0  0
    3.5345   10.7448   -2.8859 O   0  0  0  0  0  0  0  0  0  0  0  0
    6.7406   13.4069   -2.7580 C   0  0  0  0  0  0  0  0  0  0  0  0
    7.9709   13.3229   -3.4042 C   0  0  0  0  0  0  0  0  0  0  0  0
    8.5076   12.0939   -3.7639 C   0  0  0  0  0  0  0  0  0  0  0  0
    7.8486    8.0954   -1.9406 C   0  0  0  0  0  3  0  0  0  0  0  0
    7.8471    8.9645   -0.8330 C   0  0  0  0  0  0  0  0  0  0  0  0
    9.7310    9.5069    0.1859 S   0  0  0  0  0  0  0  0  0  0  0  0
   10.1240   11.0317   -0.7271 C   0  0  0  0  0  0  0  0  0  0  0  0
   11.3997   11.0359   -1.5951 C   0  0  2  0  0  0  0  0  0  0  0  0
   12.2584   10.8395   -0.9284 H   0  0  0  0  0  0  0  0  0  0  0  0
   11.5746   12.3122   -2.2560 N   0  0  0  0  0  0  0  0  0  0  0  0
   11.6707   13.5173   -1.6667 C   0  0  0  0  0  0  0  0  0  0  0  0
   11.7183   14.6942   -2.6265 C   0  0  0  0  0  0  0  0  0  0  0  0
   11.6780   13.6961   -0.4556 O   0  0  0  0  0  0  0  0  0  0  0  0
   11.4680    9.9936   -2.7347 C   0  0  0  0  0  0  0  0  0  0  0  0
   11.4195    8.7128   -2.3538 N   0  0  0  0  0  0  0  0  0  0  0  0
   11.5315    7.6174   -3.2923 C   0  0  0  0  0  0  0  0  0  0  0  0
   11.6342   10.3610   -3.8986 O   0  0  0  0  0  0  0  0  0  0  0  0
    9.1185    9.7142   -4.4932 H   0  0  0  0  0  0  0  0  0  0  0  0
    5.9868   10.0752   -2.6765 H   0  0  0  0  0  0  0  0  0  0  0  0
    4.7149   13.0605   -1.0945 H   0  0  0  0  0  0  0  0  0  0  0  0
    1.7791   11.3535   -1.4561 H   0  0  0  0  0  0  0  0  0  0  0  0
    4.3984   15.3908    2.6309 H   0  0  0  0  0  0  0  0  0  0  0  0
    5.2028   10.4257    1.7873 H   0  0  0  0  0  0  0  0  0  0  0  0
    6.9662   10.7451    1.7586 H   0  0  0  0  0  0  0  0  0  0  0  0
    5.9920   10.9630    0.2703 H   0  0  0  0  0  0  0  0  0  0  0  0
    8.1542   12.2425    0.7111 H   0  0  0  0  0  0  0  0  0  0  0  0
    9.4563   14.1942   -0.0396 H   0  0  0  0  0  0  0  0  0  0  0  0
    8.4325   16.4743   -0.0148 H   0  0  0  0  0  0  0  0  0  0  0  0
    6.0807   16.7548    0.7995 H   0  0  0  0  0  0  0  0  0  0  0  0
    0.3624   13.6821    2.3535 H   0  0  0  0  0  0  0  0  0  0  0  0
    0.3957   12.1634    0.3566 H   0  0  0  0  0  0  0  0  0  0  0  0
    6.3327   14.3687   -2.4408 H   0  0  0  0  0  0  0  0  0  0  0  0
    8.5324   14.2368   -3.6144 H   0  0  0  0  0  0  0  0  0  0  0  0
    9.4932   12.0248   -4.2278 H   0  0  0  0  0  0  0  0  0  0  0  0
    7.7557    7.0229   -1.7503 H   0  0  0  0  0  0  0  0  0  0  0  0
    7.3899    8.5601    0.0759 H   0  0  0  0  0  0  0  0  0  0  0  0
    7.5994   10.0183   -0.9781 H   0  0  0  0  0  0  0  0  0  0  0  0
   10.2663   11.8434   -0.0030 H   0  0  0  0  0  0  0  0  0  0  0  0
    9.2699   11.3069   -1.3645 H   0  0  0  0  0  0  0  0  0  0  0  0
   11.6368   12.2091   -3.2675 H   0  0  0  0  0  0  0  0  0  0  0  0
   11.9861   14.4126   -3.6543 H   0  0  0  0  0  0  0  0  0  0  0  0
   12.4310   15.4361   -2.2438 H   0  0  0  0  0  0  0  0  0  0  0  0
   10.7216   15.1613   -2.6400 H   0  0  0  0  0  0  0  0  0  0  0  0
   11.0360    8.5401   -1.4169 H   0  0  0  0  0  0  0  0  0  0  0  0
   10.5454    7.2750   -3.6457 H   0  0  0  0  0  0  0  0  0  0  0  0
   12.0589    6.7813   -2.8096 H   0  0  0  0  0  0  0  0  0  0  0  0
   12.1151    7.9573   -4.1578 H   0  0  0  0  0  0  0  0  0  0  0  0
  1  2  2  0  0  0  0
  2 29  1  0  0  0  0
  3  4  1  0  0  0  0
  3  2  1  0  0  0  0
  4  5  1  0  0  0  0
  5 44  1  0  0  0  0
  5  6  2  0  0  0  0
  6  7  1  0  0  0  0
  7 45  1  0  0  0  0
  8  7  1  0  0  0  0
  8  9  1  0  0  0  0
  9 10  1  0  0  0  0
 10 11  1  0  0  0  0
 10 24  2  0  0  0  0
 11 12  2  0  0  0  0
 12 13  1  0  0  0  0
 12 22  1  0  0  0  0
 13 47  1  0  0  0  0
 14 13  1  0  0  0  0
 15 14  1  0  0  0  0
 15 16  1  0  0  0  0
 17 16  1  0  0  0  0
 17 49  1  0  0  0  0
 17 48  1  0  0  0  0
 18 15  2  0  0  0  0
 19 20  2  0  0  0  0
 19 18  1  0  0  0  0
 20 21  1  0  0  0  0
 21 54  1  0  0  0  0
 21 14  2  0  0  0  0
 23 22  2  0  0  0  0
 23 55  1  0  0  0  0
 24 23  1  0  0  0  0
 25  8  2  0  0  0  0
 26  6  1  0  0  0  0
 26 57  1  0  0  0  0
 27 26  2  0  0  0  0
 28  4  2  0  0  0  0
 28 27  1  0  0  0  0
 29 60  1  0  0  0  0
 29 30  1  0  0  0  0
 30 61  1  0  0  0  0
 30 31  1  0  0  0  0
 32 63  1  0  0  0  0
 32 31  1  0  0  0  0
 33 34  1  1  0  0  0
 33 32  1  0  0  0  0
 35 36  1  0  0  0  0
 35 33  1  0  0  0  0
 36 38  2  0  0  0  0
 37 67  1  0  0  0  0
 37 36  1  0  0  0  0
 39 40  1  0  0  0  0
 39 33  1  0  0  0  0
 40 69  1  0  0  0  0
 41 71  1  0  0  0  0
 41 40  1  0  0  0  0
 42 39  2  0  0  0  0
 43  3  1  0  0  0  0
 46  9  1  0  0  0  0
 50 17  1  0  0  0  0
 51 18  1  0  0  0  0
 52 19  1  0  0  0  0
 53 20  1  0  0  0  0
 56 24  1  0  0  0  0
 58 27  1  0  0  0  0
 59 28  1  0  0  0  0
 62 30  1  0  0  0  0
 64 32  1  0  0  0  0
 65 35  1  0  0  0  0
 66 37  1  0  0  0  0
 68 37  1  0  0  0  0
 70 41  1  0  0  0  0
 72 41  1  0  0  0  0
M  END
