72
-1 1
O         1.090217   -4.249365   -3.059052
C         0.906412   -3.419783   -2.151417
N         1.180767   -2.049621   -2.537396
C         0.518988   -0.870846   -2.312711
C        -0.752487   -0.808367   -1.711579
C        -1.319165    0.425326   -1.395652
N        -2.550599    0.514846   -0.704150
C        -3.656300   -0.228375   -0.940229
N        -4.769041    0.075045   -0.105435
C        -4.893138    0.875266    1.001386
N        -3.866283    1.635803    1.357415
C        -3.960804    2.341070    2.488765
N        -2.858784    3.027071    2.889921
C        -1.553257    2.831328    2.372910
C        -0.976083    1.541852    2.359529
O        -1.715571    0.540933    2.870369
C        -1.417099   -0.780097    2.479885
C         0.311966    1.373547    1.843716
C         1.044286    2.474005    1.400383
C         0.485634    3.749066    1.433714
C        -0.815681    3.917304    1.905737
N        -5.053623    2.443774    3.255513
C        -6.098881    1.723015    2.855073
C        -6.091621    0.890760    1.747894
O        -3.796595   -1.094436   -1.774633
C        -0.660074    1.622659   -1.692115
C         0.572355    1.561781   -2.339442
C         1.156216    0.343640   -2.655583
C         0.576872   -3.711725   -0.818744
C         0.595081   -2.835173    0.341187
S         2.281039   -2.380070    1.245255
C         2.762361   -0.860852    0.364428
C         4.063580   -0.885944   -0.463199
H         4.900001   -1.102694    0.225479
N         4.274567    0.394073   -1.103730
C         4.345186    1.594351   -0.499354
C         4.396770    2.779049   -1.447384
O         4.321115    1.756672    0.713907
C         4.152180   -1.916287   -1.614740
N         4.074328   -3.203272   -1.259142
C         4.146640   -4.277843   -2.228727
O         4.366576   -1.531908   -2.763616
H         1.879717   -2.025526   -3.272142
H        -1.280887   -1.734626   -1.486754
H        -2.646670    1.233540    0.019579
H        -5.559964   -0.509836   -0.343289
H        -2.975225    3.539501    3.754957
H        -2.207968   -1.413971    2.899144
H        -0.440966   -1.121601    2.862958
H        -1.420986   -0.872793    1.381897
H         0.762274    0.380808    1.812889
H         2.068819    2.325009    1.050473
H         1.057929    4.610815    1.084925
H        -1.286044    4.903439    1.916072
H        -7.004011    1.802861    3.468515
H        -6.955811    0.287461    1.470424
H        -1.108118    2.578012   -1.412617
H         1.094132    2.489020   -2.591656
H         2.140345    0.300546   -3.127156
H         0.435648   -4.780600   -0.637155
H         0.057540   -3.278084    1.191948
H         0.205630   -1.819895    0.188441
H         2.906654   -0.070688    1.111344
H         1.931850   -0.555388   -0.285724
H         4.350732    0.299999   -2.115872
H         4.787958    2.523139   -2.441993
H         5.006614    3.571464   -0.995744
H         3.371186    3.161688   -1.566368
H         3.647731   -3.392523   -0.348979
H         3.151126   -4.526149   -2.635358
H         4.581249   -5.165280   -1.746137
H         4.799804   -3.961861   -3.052571
