72
-1 1
O         1.107366   -4.270265   -3.671015
C         0.687132   -3.454559   -2.870088
N         1.025221   -2.126493   -2.999482
C         0.477176   -0.951854   -2.463537
C        -0.811482   -0.892197   -1.921945
C        -1.262295    0.293638   -1.338315
N        -2.507009    0.384842   -0.687842
C        -3.593431   -0.397092   -0.889431
N        -4.704609   -0.098063   -0.063871
C        -4.836696    0.720274    1.033157
N        -3.827612    1.516157    1.359633
C        -3.935269    2.244753    2.477034
N        -2.866979    2.986025    2.856816
C        -1.546164    2.873763    2.350757
C        -0.863901    1.636450    2.377345
O        -1.543533    0.571573    2.832699
C        -1.037645   -0.717644    2.538981
C         0.465078    1.580101    1.946333
C         1.116990    2.732038    1.508649
C         0.443438    3.951658    1.474760
C        -0.885819    4.012902    1.891901
N        -5.027226    2.324328    3.251694
C        -6.050549    1.561934    2.880678
C        -6.026923    0.708626    1.788746
O        -3.712813   -1.297188   -1.695596
C        -0.456868    1.438560   -1.338831
C         0.792994    1.385551   -1.942117
C         1.262025    0.206621   -2.508322
C        -0.105578   -3.922287   -1.692918
C         0.152467   -3.575744   -0.430671
S         2.640898   -1.828108    1.836582
C         2.811694   -0.510859    0.575927
C         4.047463   -0.614909   -0.342791
H         4.922636   -0.784816    0.310517
N         4.257404    0.566409   -1.159885
C         4.373318    1.843102   -0.750912
C         4.536605    2.856850   -1.875829
O         4.340065    2.215466    0.413496
C         3.972385   -1.780003   -1.349154
N         3.768213   -2.978934   -0.798667
C         3.676551   -4.198479   -1.558146
O         4.104461   -1.579829   -2.562488
H         1.849337   -1.998424   -3.581232
H        -1.465253   -1.757788   -1.929358
H        -2.613928    1.097502    0.044197
H        -5.480348   -0.712819   -0.274304
H        -3.014355    3.514358    3.707822
H        -1.787248   -1.429865    2.905186
H        -0.068163   -0.917129    3.022143
H        -0.905665   -0.849616    1.451707
H         1.005165    0.632036    1.977436
H         2.162664    2.663643    1.193187
H         0.950641    4.853754    1.126691
H        -1.437912    4.955764    1.871493
H        -6.950818    1.623785    3.503350
H        -6.872460    0.071116    1.531258
H        -0.804432    2.352771   -0.852264
H         1.430679    2.271818   -1.938689
H         2.264755    0.148721   -2.930286
H        -0.820520   -4.715773   -1.929906
H        -0.375673   -4.060659    0.394890
H         0.902431   -2.830248   -0.135795
H         2.919989    0.455046    1.082344
H         1.914315   -0.450824   -0.060499
H         4.350549    0.330009   -2.145595
H         4.624518    2.406128   -2.874217
H         5.425056    3.469958   -1.670210
H         3.666210    3.529470   -1.862181
H         3.505792   -2.965158    0.210247
H         2.761425   -4.748224   -1.294315
H         4.542790   -4.854014   -1.365080
H         3.642293   -3.967005   -2.629678
