-1 1
 OpenBabel05232414493D

 76 77  0  0  1  0  0  0  0  0999 V2000
    5.8531  -11.3300   -6.2462 O   0  0  0  0  0  0  0  0  0  0  0  0
    4.6842  -11.3861   -5.8579 C   0  0  0  0  0  0  0  0  0  0  0  0
    4.2896  -12.6353   -5.2856 N   0  0  0  0  0  0  0  0  0  0  0  0
    3.4965  -12.9671   -4.2126 C   0  0  0  0  0  0  0  0  0  0  0  0
    3.0290  -12.0155   -3.2871 C   0  0  0  0  0  0  0  0  0  0  0  0
    2.1967  -12.4168   -2.2433 C   0  0  0  0  0  0  0  0  0  0  0  0
    1.6465  -11.5019   -1.3141 N   0  0  0  0  0  0  0  0  0  0  0  0
    2.0563  -10.2273   -1.0307 C   0  0  0  0  0  0  0  0  0  0  0  0
    1.2259   -9.6216   -0.0750 N   0  0  0  0  0  0  0  0  0  0  0  0
    1.3438   -8.3637    0.4780 C   0  0  0  0  0  0  0  0  0  0  0  0
    0.3734   -8.0643    1.3374 N   0  0  0  0  0  0  0  0  0  0  0  0
    0.4152   -6.8617    1.9259 C   0  0  0  0  0  0  0  0  0  0  0  0
   -0.6251   -6.6269    2.7855 N   0  0  0  0  0  0  0  0  0  0  0  0
   -0.9468   -5.5186    3.5681 C   0  0  0  0  0  0  0  0  0  0  0  0
   -2.2019   -5.5458    4.1984 C   0  0  0  0  0  0  0  0  0  0  0  0
   -3.0145   -6.6313    3.9870 O   0  0  0  0  0  0  0  0  0  0  0  0
   -3.9747   -6.4499    2.9684 C   0  0  0  0  0  0  0  0  0  0  0  0
   -2.6265   -4.5146    5.0352 C   0  0  0  0  0  0  0  0  0  0  0  0
   -1.7970   -3.4116    5.2499 C   0  0  0  0  0  0  0  0  0  0  0  0
   -2.1170   -2.3594    6.0443 O   0  0  0  0  0  0  0  0  0  0  0  0
   -3.3554   -2.3616    6.6902 C   0  0  0  0  0  0  0  0  0  0  0  0
   -0.5507   -3.3682    4.6168 C   0  0  0  0  0  0  0  0  0  0  0  0
   -0.1260   -4.4032    3.7938 C   0  0  0  0  0  0  0  0  0  0  0  0
    1.3491   -5.9314    1.7359 N   0  0  0  0  0  0  0  0  0  0  0  0
    2.3107   -6.2518    0.8660 C   0  0  0  0  0  0  0  0  0  0  0  0
    2.3806   -7.4549    0.1886 C   0  0  0  0  0  0  0  0  0  0  0  0
    3.0078   -9.6669   -1.5212 O   0  0  0  0  0  0  0  0  0  0  0  0
    1.8379  -13.7619   -2.0823 C   0  0  0  0  0  0  0  0  0  0  0  0
    2.3293  -14.7021   -2.9842 C   0  0  0  0  0  0  0  0  0  0  0  0
    3.1489  -14.3227   -4.0360 C   0  0  0  0  0  0  0  0  0  0  0  0
    3.7234  -10.3455   -6.0518 C   0  0  0  0  0  3  0  0  0  0  0  0
    2.3323  -10.4446   -5.9831 C   0  0  0  0  0  3  0  0  0  0  0  0
    1.1963  -11.4856   -7.7036 S   0  0  0  0  0  1  0  0  0  0  0  0
    0.9786  -13.1024   -6.8926 C   0  0  0  0  0  0  0  0  0  0  0  0
    1.6075  -14.3246   -7.5974 C   0  0  2  0  0  0  0  0  0  0  0  0
    1.1679  -14.3882   -8.6079 H   0  0  0  0  0  0  0  0  0  0  0  0
    1.3186  -15.5422   -6.8731 N   0  0  0  0  0  0  0  0  0  0  0  0
    0.1076  -16.1345   -6.8084 C   0  0  0  0  0  0  0  0  0  0  0  0
    0.0650  -17.3907   -5.9504 C   0  0  0  0  0  0  0  0  0  0  0  0
   -0.8958  -15.7006   -7.3495 O   0  0  0  0  0  0  0  0  0  0  0  0
    3.1402  -14.2951   -7.7580 C   0  0  0  0  0  0  0  0  0  0  0  0
    3.6211  -13.3066   -8.5214 N   0  0  0  0  0  0  0  0  0  0  0  0
    5.0307  -13.1635   -8.8072 C   0  0  0  0  0  0  0  0  0  0  0  0
    3.8411  -15.1743   -7.2513 O   0  0  0  0  0  0  0  0  0  0  0  0
    4.8389  -13.3989   -5.6663 H   0  0  0  0  0  0  0  0  0  0  0  0
    3.3148  -10.9720   -3.3971 H   0  0  0  0  0  0  0  0  0  0  0  0
    0.8971  -11.8847   -0.7546 H   0  0  0  0  0  0  0  0  0  0  0  0
    0.3972  -10.1047    0.2516 H   0  0  0  0  0  0  0  0  0  0  0  0
   -1.2741   -7.4006    2.8653 H   0  0  0  0  0  0  0  0  0  0  0  0
   -3.4959   -6.2313    1.9978 H   0  0  0  0  0  0  0  0  0  0  0  0
   -4.6674   -5.6256    3.2114 H   0  0  0  0  0  0  0  0  0  0  0  0
   -4.5449   -7.3845    2.8865 H   0  0  0  0  0  0  0  0  0  0  0  0
   -3.6057   -4.6143    5.5034 H   0  0  0  0  0  0  0  0  0  0  0  0
   -3.4603   -3.2174    7.3816 H   0  0  0  0  0  0  0  0  0  0  0  0
   -4.1962   -2.3852    5.9731 H   0  0  0  0  0  0  0  0  0  0  0  0
   -3.4139   -1.4317    7.2700 H   0  0  0  0  0  0  0  0  0  0  0  0
    0.0884   -2.5006    4.7885 H   0  0  0  0  0  0  0  0  0  0  0  0
    0.8419   -4.3643    3.2989 H   0  0  0  0  0  0  0  0  0  0  0  0
    3.0804   -5.4909    0.6993 H   0  0  0  0  0  0  0  0  0  0  0  0
    3.1648   -7.6984   -0.5219 H   0  0  0  0  0  0  0  0  0  0  0  0
    1.1838  -14.0665   -1.2606 H   0  0  0  0  0  0  0  0  0  0  0  0
    2.0543  -15.7537   -2.8695 H   0  0  0  0  0  0  0  0  0  0  0  0
    3.5100  -15.0518   -4.7639 H   0  0  0  0  0  0  0  0  0  0  0  0
    4.1621   -9.4628   -6.5239 H   0  0  0  0  0  0  0  0  0  0  0  0
    1.7690   -9.5157   -6.0979 H   0  0  0  0  0  0  0  0  0  0  0  0
    1.8579  -11.1411   -5.2889 H   0  0  0  0  0  0  0  0  0  0  0  0
   -0.0942  -13.3257   -6.8179 H   0  0  0  0  0  0  0  0  0  0  0  0
    1.3758  -13.0596   -5.8654 H   0  0  0  0  0  0  0  0  0  0  0  0
    2.1536  -16.0010   -6.5187 H   0  0  0  0  0  0  0  0  0  0  0  0
   -0.3199  -17.1204   -4.9553 H   0  0  0  0  0  0  0  0  0  0  0  0
    1.0488  -17.8652   -5.8253 H   0  0  0  0  0  0  0  0  0  0  0  0
   -0.6376  -18.1033   -6.4014 H   0  0  0  0  0  0  0  0  0  0  0  0
    2.9889  -12.5037   -8.6499 H   0  0  0  0  0  0  0  0  0  0  0  0
    5.5332  -12.4835   -8.1003 H   0  0  0  0  0  0  0  0  0  0  0  0
    5.1571  -12.7744   -9.8286 H   0  0  0  0  0  0  0  0  0  0  0  0
    5.5037  -14.1521   -8.7403 H   0  0  0  0  0  0  0  0  0  0  0  0
  1  2  2  0  0  0  0
  2  3  1  0  0  0  0
  3  4  1  0  0  0  0
  4 30  2  0  0  0  0
  4  5  1  0  0  0  0
  5  6  2  0  0  0  0
  6 28  1  0  0  0  0
  6  7  1  0  0  0  0
  7  8  1  0  0  0  0
  7 47  1  0  0  0  0
  8  9  1  0  0  0  0
  9 48  1  0  0  0  0
  9 10  1  0  0  0  0
 10 11  1  0  0  0  0
 11 12  2  0  0  0  0
 12 13  1  0  0  0  0
 13 49  1  0  0  0  0
 13 14  1  0  0  0  0
 14 23  2  0  0  0  0
 14 15  1  0  0  0  0
 15 18  2  0  0  0  0
 16 15  1  0  0  0  0
 17 51  1  0  0  0  0
 17 16  1  0  0  0  0
 18 19  1  0  0  0  0
 18 53  1  0  0  0  0
 19 20  1  0  0  0  0
 20 21  1  0  0  0  0
 21 56  1  0  0  0  0
 21 54  1  0  0  0  0
 22 57  1  0  0  0  0
 22 19  2  0  0  0  0
 23 22  1  0  0  0  0
 24 12  1  0  0  0  0
 25 24  2  0  0  0  0
 26 10  2  0  0  0  0
 26 25  1  0  0  0  0
 27  8  2  0  0  0  0
 28 61  1  0  0  0  0
 29 62  1  0  0  0  0
 29 28  2  0  0  0  0
 30 29  1  0  0  0  0
 31 32  1  0  0  0  0
 31  2  1  0  0  0  0
 32 66  1  0  0  0  0
 33 34  1  0  0  0  0
 34 67  1  0  0  0  0
 34 68  1  0  0  0  0
 35 36  1  6  0  0  0
 35 34  1  0  0  0  0
 35 37  1  0  0  0  0
 37 38  1  0  0  0  0
 37 69  1  0  0  0  0
 38 39  1  0  0  0  0
 39 71  1  0  0  0  0
 39 70  1  0  0  0  0
 40 38  2  0  0  0  0
 41 35  1  0  0  0  0
 41 44  2  0  0  0  0
 42 41  1  0  0  0  0
 43 76  1  0  0  0  0
 43 42  1  0  0  0  0
 43 74  1  0  0  0  0
 45  3  1  0  0  0  0
 46  5  1  0  0  0  0
 50 17  1  0  0  0  0
 52 17  1  0  0  0  0
 55 21  1  0  0  0  0
 58 23  1  0  0  0  0
 59 25  1  0  0  0  0
 60 26  1  0  0  0  0
 63 30  1  0  0  0  0
 64 31  1  0  0  0  0
 65 32  1  0  0  0  0
 72 39  1  0  0  0  0
 73 42  1  0  0  0  0
 75 43  1  0  0  0  0
M  END
