-1 1
 OpenBabel05232413493D

 79 80  0  0  1  0  0  0  0  0999 V2000
   -5.1893    7.5674    0.3554 O   0  0  0  0  0  0  0  0  0  0  0  0
   -4.6032    6.5446    0.0544 C   0  0  0  0  0  0  0  0  0  0  0  0
   -4.6860    6.0670   -1.2354 N   0  0  0  0  0  0  0  0  0  0  0  0
   -4.4967    4.7696   -1.7787 C   0  0  0  0  0  0  0  0  0  0  0  0
   -3.3104    4.0610   -1.6345 C   0  0  0  0  0  0  0  0  0  0  0  0
   -3.1720    2.7706   -2.1788 C   0  0  0  0  0  0  0  0  0  0  0  0
   -1.9731    2.1276   -1.9069 N   0  0  0  0  0  0  0  0  0  0  0  0
   -1.6052    0.8537   -2.2347 C   0  0  0  0  0  0  0  0  0  0  0  0
   -0.3852    0.5378   -1.6334 N   0  0  0  0  0  0  0  0  0  0  0  0
    0.2199   -0.6879   -1.5735 C   0  0  0  0  0  0  0  0  0  0  0  0
    1.3061   -0.7339   -0.8036 N   0  0  0  0  0  0  0  0  0  0  0  0
    1.9434   -1.9023   -0.6835 C   0  0  0  0  0  0  0  0  0  0  0  0
    3.0432   -1.8391    0.1399 N   0  0  0  0  0  0  0  0  0  0  0  0
    3.9639   -2.8072    0.5396 C   0  0  0  0  0  0  0  0  0  0  0  0
    3.9423   -4.1443    0.1262 C   0  0  0  0  0  0  0  0  0  0  0  0
    4.9117   -5.0447    0.5746 C   0  0  0  0  0  0  0  0  0  0  0  0
    5.9236   -4.6357    1.4437 C   0  0  0  0  0  0  0  0  0  0  0  0
    6.9054   -5.4390    1.9460 O   0  0  0  0  0  0  0  0  0  0  0  0
    7.0148   -6.7666    1.5139 C   0  0  0  0  0  0  0  0  0  0  0  0
    7.6886   -6.8710    0.1527 C   0  0  0  0  0  0  0  0  0  0  0  0
    7.7922   -8.2269   -0.1695 O   0  0  0  0  0  0  0  0  0  0  0  0
    8.3736   -8.4639   -1.4128 C   0  0  0  0  0  0  0  0  0  0  0  0
    5.9484   -3.3007    1.8613 C   0  0  0  0  0  0  0  0  0  0  0  0
    4.9874   -2.4061    1.4183 C   0  0  0  0  0  0  0  0  0  0  0  0
    1.5986   -3.0503   -1.2631 N   0  0  0  0  0  0  0  0  0  0  0  0
    0.5045   -2.9897   -2.0314 C   0  0  0  0  0  0  0  0  0  0  0  0
   -0.2401   -1.8476   -2.2410 C   0  0  0  0  0  0  0  0  0  0  0  0
   -2.2314    0.0897   -2.9455 O   0  0  0  0  0  0  0  0  0  0  0  0
   -4.2194    2.2196   -2.9318 C   0  0  0  0  0  0  0  0  0  0  0  0
   -5.3892    2.9579   -3.0988 C   0  0  0  0  0  0  0  0  0  0  0  0
   -5.5485    4.2135   -2.5223 C   0  0  0  0  0  0  0  0  0  0  0  0
   -3.8008    5.8215    1.0927 C   0  0  0  0  0  0  0  0  0  0  0  0
   -2.4703    5.7329    1.1125 C   0  0  0  0  0  0  0  0  0  0  0  0
    0.0984    3.3360    0.1514 S   0  0  0  0  0  1  0  0  0  0  0  0
   -0.3096    2.4511    1.6972 C   0  0  0  0  0  0  0  0  0  0  0  0
   -1.4791    1.4647    1.5985 C   0  0  2  0  0  0  0  0  0  0  0  0
   -1.2569    0.7285    0.8140 H   0  0  0  0  0  0  0  0  0  0  0  0
   -2.7108    2.1377    1.2602 N   0  0  0  0  0  0  0  0  0  0  0  0
   -3.8433    1.4291    1.0570 C   0  0  0  0  0  0  0  0  0  0  0  0
   -5.0820    2.2250    0.7065 C   0  0  0  0  0  0  0  0  0  0  0  0
   -3.8701    0.2097    1.1521 O   0  0  0  0  0  0  0  0  0  0  0  0
   -1.6338    0.7599    2.9543 C   0  0  0  0  0  0  0  0  0  0  0  0
   -1.2250   -0.5374    3.0205 N   0  0  0  0  0  0  0  0  0  0  0  0
   -1.0248   -1.4344    1.9000 C   0  0  0  0  0  0  0  0  0  0  0  0
   -2.0265    1.3598    3.9383 O   0  0  0  0  0  0  0  0  0  0  0  0
   -5.3181    6.6543   -1.7712 H   0  0  0  0  0  0  0  0  0  0  0  0
   -2.4665    4.4806   -1.0890 H   0  0  0  0  0  0  0  0  0  0  0  0
   -1.3438    2.6206   -1.2260 H   0  0  0  0  0  0  0  0  0  0  0  0
    0.0620    1.2850   -1.0662 H   0  0  0  0  0  0  0  0  0  0  0  0
    3.1793   -0.9054    0.5074 H   0  0  0  0  0  0  0  0  0  0  0  0
    3.1564   -4.4680   -0.5525 H   0  0  0  0  0  0  0  0  0  0  0  0
    4.8529   -6.0754    0.2218 H   0  0  0  0  0  0  0  0  0  0  0  0
    6.0371   -7.2786    1.4887 H   0  0  0  0  0  0  0  0  0  0  0  0
    7.6351   -7.2856    2.2584 H   0  0  0  0  0  0  0  0  0  0  0  0
    8.6858   -6.3884    0.2039 H   0  0  0  0  0  0  0  0  0  0  0  0
    7.1033   -6.3223   -0.6119 H   0  0  0  0  0  0  0  0  0  0  0  0
    8.4055   -9.5506   -1.5715 H   0  0  0  0  0  0  0  0  0  0  0  0
    9.4078   -8.0694   -1.4686 H   0  0  0  0  0  0  0  0  0  0  0  0
    7.7919   -8.0044   -2.2362 H   0  0  0  0  0  0  0  0  0  0  0  0
    6.7377   -2.9812    2.5440 H   0  0  0  0  0  0  0  0  0  0  0  0
    5.0265   -1.3680    1.7598 H   0  0  0  0  0  0  0  0  0  0  0  0
    0.2057   -3.9279   -2.5122 H   0  0  0  0  0  0  0  0  0  0  0  0
   -1.1281   -1.8177   -2.8649 H   0  0  0  0  0  0  0  0  0  0  0  0
   -4.1035    1.2272   -3.3608 H   0  0  0  0  0  0  0  0  0  0  0  0
   -6.2082    2.5288   -3.6813 H   0  0  0  0  0  0  0  0  0  0  0  0
   -6.4850    4.7647   -2.6360 H   0  0  0  0  0  0  0  0  0  0  0  0
   -4.3876    5.5042    1.9614 H   0  0  0  0  0  0  0  0  0  0  0  0
   -1.9403    5.3039    1.9661 H   0  0  0  0  0  0  0  0  0  0  0  0
   -1.8414    6.0798    0.2894 H   0  0  0  0  0  0  0  0  0  0  0  0
   -0.5451    3.1627    2.5062 H   0  0  0  0  0  0  0  0  0  0  0  0
    0.5675    1.8757    2.0338 H   0  0  0  0  0  0  0  0  0  0  0  0
   -2.6826    3.1377    1.0979 H   0  0  0  0  0  0  0  0  0  0  0  0
   -5.3459    2.0277   -0.3427 H   0  0  0  0  0  0  0  0  0  0  0  0
   -4.9503    3.3068    0.8352 H   0  0  0  0  0  0  0  0  0  0  0  0
   -5.9085    1.8713    1.3376 H   0  0  0  0  0  0  0  0  0  0  0  0
   -1.3741   -0.9439    3.9360 H   0  0  0  0  0  0  0  0  0  0  0  0
   -0.1217   -1.1766    1.3259 H   0  0  0  0  0  0  0  0  0  0  0  0
   -1.8956   -1.4271    1.2255 H   0  0  0  0  0  0  0  0  0  0  0  0
   -0.8889   -2.4529    2.2875 H   0  0  0  0  0  0  0  0  0  0  0  0
  2  1  2  0  0  0  0
  2 32  1  0  0  0  0
  3  2  1  0  0  0  0
  4  5  1  0  0  0  0
  4  3  1  0  0  0  0
  5 47  1  0  0  0  0
  6  7  1  0  0  0  0
  6  5  2  0  0  0  0
  7 48  1  0  0  0  0
  8  7  1  0  0  0  0
  8  9  1  0  0  0  0
  9 10  1  0  0  0  0
  9 49  1  0  0  0  0
 10 11  1  0  0  0  0
 11 12  2  0  0  0  0
 12 13  1  0  0  0  0
 13 50  1  0  0  0  0
 13 14  1  0  0  0  0
 14 24  1  0  0  0  0
 15 14  2  0  0  0  0
 15 16  1  0  0  0  0
 16 17  2  0  0  0  0
 17 23  1  0  0  0  0
 17 18  1  0  0  0  0
 19 18  1  0  0  0  0
 19 54  1  0  0  0  0
 20 55  1  0  0  0  0
 20 19  1  0  0  0  0
 21 20  1  0  0  0  0
 22 21  1  0  0  0  0
 23 60  1  0  0  0  0
 24 61  1  0  0  0  0
 24 23  2  0  0  0  0
 25 12  1  0  0  0  0
 26 25  2  0  0  0  0
 27 26  1  0  0  0  0
 27 10  2  0  0  0  0
 28  8  2  0  0  0  0
 29  6  1  0  0  0  0
 30 29  2  0  0  0  0
 30 31  1  0  0  0  0
 31  4  2  0  0  0  0
 32 33  2  0  0  0  0
 32 67  1  0  0  0  0
 33 68  1  0  0  0  0
 34 35  1  0  0  0  0
 35 71  1  0  0  0  0
 35 70  1  0  0  0  0
 36 37  1  6  0  0  0
 36 35  1  0  0  0  0
 36 42  1  0  0  0  0
 38 36  1  0  0  0  0
 39 41  2  0  0  0  0
 39 38  1  0  0  0  0
 40 74  1  0  0  0  0
 40 39  1  0  0  0  0
 40 75  1  0  0  0  0
 42 43  1  0  0  0  0
 42 45  2  0  0  0  0
 43 76  1  0  0  0  0
 44 79  1  0  0  0  0
 44 43  1  0  0  0  0
 46  3  1  0  0  0  0
 51 15  1  0  0  0  0
 52 16  1  0  0  0  0
 53 19  1  0  0  0  0
 56 20  1  0  0  0  0
 57 22  1  0  0  0  0
 58 22  1  0  0  0  0
 59 22  1  0  0  0  0
 62 26  1  0  0  0  0
 63 27  1  0  0  0  0
 64 29  1  0  0  0  0
 65 30  1  0  0  0  0
 66 31  1  0  0  0  0
 69 33  1  0  0  0  0
 72 38  1  0  0  0  0
 73 40  1  0  0  0  0
 77 44  1  0  0  0  0
 78 44  1  0  0  0  0
M  END
