79
-1 1
O         2.966164   -9.493738    9.753885
C         3.960782   -9.500389    9.025823
N         3.669748   -9.442661    7.609587
C         4.012769  -10.405202    6.666087
C         5.153837  -11.181966    6.819872
C         5.493311  -12.193895    5.926274
N         6.687184  -12.857240    6.255765
C         7.055115  -14.124533    5.933474
N         8.218352  -14.494606    6.631246
C         8.822060  -15.723710    6.678462
N         9.894047  -15.780467    7.466710
C        10.526671  -16.954391    7.577427
N        11.608010  -16.914747    8.425334
C        12.520048  -17.896120    8.819011
C        12.499475  -19.223769    8.377838
C        13.457994  -20.137090    8.823405
C        14.456986  -19.750228    9.717366
O        15.426444  -20.566706   10.218568
C        15.530311  -21.890422    9.770938
C        16.226315  -21.983610    8.420198
O        16.317444  -23.335590    8.080691
C        16.921211  -23.563966    6.846088
C        14.480272  -18.423954   10.162565
C        13.530089  -17.516760    9.721925
N        10.192580  -18.085633    6.962390
C         9.115947  -18.008460    6.171172
C         8.373563  -16.862559    5.974006
O         6.495280  -14.852720    5.141686
C         4.680447  -12.466527    4.822604
C         3.539168  -11.676056    4.656689
C         3.198357  -10.657816    5.544083
C         5.299442   -9.471654    9.530699
C         6.508104   -9.157254    8.857990
S         8.024053  -10.735974    8.592936
C         7.833353  -11.615546   10.165603
C         7.044151  -12.925297   10.073189
H         7.469668  -13.558029    9.282253
N         5.664239  -12.666129    9.736428
C         4.889857  -13.585495    9.113854
C         3.465568  -13.164887    8.827522
O         5.308517  -14.694838    8.804592
C         7.132592  -13.642635   11.432178
N         7.616396  -14.912276   11.440741
C         7.952840  -15.751821   10.306798
O         6.810401  -13.072250   12.459543
H         2.693767   -9.172229    7.538573
H         5.784332  -11.047187    7.688077
H         7.207972  -12.371977    6.996181
H         8.653809  -13.805907    7.238584
H        11.746063  -15.991487    8.815797
H        11.724115  -19.530864    7.679645
H        13.401170  -21.159964    8.448673
H        14.547943  -22.391307    9.722413
H        16.132251  -22.424922   10.519394
H        17.228617  -21.514766    8.495466
H        15.661425  -21.416031    7.653743
H        16.940365  -24.648627    6.672887
H        17.961890  -23.184192    6.817541
H        16.363266  -23.084562    6.017698
H        15.259429  -18.121845   10.864523
H        13.568051  -16.486081   10.085577
H         8.829262  -18.935057    5.662153
H         7.497833  -16.813801    5.333853
H         4.927294  -13.273004    4.135516
H         2.885203  -11.869369    3.801888
H         2.288002  -10.072900    5.387632
H         5.308618   -9.460053   10.624632
H         7.215557   -8.535674    9.412469
H         6.438934   -8.868757    7.802730
H         7.331095  -10.965345   10.900271
H         8.833683  -11.832403   10.568313
H         5.309063  -11.722713    9.899710
H         3.310664  -13.188422    7.739382
H         3.214438  -12.164828    9.206919
H         2.793792  -13.908971    9.278938
H         7.661274  -15.310477   12.371109
H         8.919412  -15.481336    9.850498
H         7.164838  -15.697758    9.540652
H         8.026033  -16.791989   10.651759
