-1 1
 OpenBabel05192410563D

 92 95  0  0  1  0  0  0  0  0999 V2000
    3.9167    3.0856   -3.7258 O   0  0  0  0  0  0  0  0  0  0  0  0
    3.1334    4.0354   -3.9450 C   0  0  0  0  0  0  0  0  0  0  0  0
    1.7230    3.7244   -3.6783 N   0  0  0  0  0  0  0  0  0  0  0  0
    0.8011    3.5708   -4.7932 C   0  0  1  0  0  0  0  0  0  0  0  0
    1.3154    2.5952   -5.8646 C   0  0  0  0  0  0  0  0  0  0  0  0
    1.4766    1.2001   -5.2622 C   0  0  0  0  0  0  0  0  0  0  0  0
    0.1982    0.7286   -4.5583 C   0  0  0  0  0  0  0  0  0  0  0  0
   -0.3341    1.7303   -3.6418 N   0  0  0  0  0  0  0  0  0  0  0  0
   -0.5286    3.0496   -4.2400 C   0  0  0  0  0  0  0  0  0  0  0  0
   -0.6116    1.5781   -2.3111 C   0  0  0  0  0  0  0  0  0  0  0  0
   -0.4302    0.2931   -1.7939 N   0  0  0  0  0  0  0  0  0  0  0  0
   -0.5239   -0.0877   -0.4691 C   0  0  0  0  0  0  0  0  0  0  0  0
   -0.5335   -1.4070   -0.2967 N   0  0  0  0  0  0  0  0  0  0  0  0
   -0.5898   -1.8715    0.9587 C   0  0  0  0  0  0  0  0  0  0  0  0
   -0.6001   -3.2397    1.0426 N   0  0  0  0  0  0  0  0  0  0  0  0
   -0.6632   -4.0965    2.1386 C   0  0  0  0  0  0  0  0  0  0  0  0
   -0.6557   -5.4793    1.8502 C   0  0  0  0  0  0  0  0  0  0  0  0
   -0.5904   -5.7886    0.5265 O   0  0  0  0  0  0  0  0  0  0  0  0
   -0.5520   -7.1289    0.1338 C   0  0  0  0  0  0  0  0  0  0  0  0
   -0.7239   -6.4294    2.8657 C   0  0  0  0  0  0  0  0  0  0  0  0
   -0.7802   -6.0355    4.2143 C   0  0  0  0  0  0  0  0  0  0  0  0
   -0.8273   -6.9783    5.2661 N   0  0  0  0  0  0  0  0  0  0  0  0
   -0.5085   -8.3566    4.9580 C   0  0  0  0  0  0  0  0  0  0  0  0
   -0.2550   -9.1379    6.2507 C   0  0  0  0  0  0  0  0  0  0  0  0
   -1.3443   -9.0551    7.2059 N   0  0  0  0  0  0  0  0  0  0  0  0
   -1.6672   -7.6626    7.4646 C   0  0  0  0  0  0  0  0  0  0  0  0
   -1.9438   -6.8587    6.1945 C   0  0  0  0  0  0  0  0  0  0  0  0
   -2.4825   -9.8914    6.8988 C   0  0  0  0  0  0  0  0  0  0  0  0
   -0.7738   -4.6666    4.4956 C   0  0  0  0  0  0  0  0  0  0  0  0
   -0.7265   -3.7138    3.4802 C   0  0  0  0  0  0  0  0  0  0  0  0
   -0.6353   -1.1295    2.0631 N   0  0  0  0  0  0  0  0  0  0  0  0
   -0.6163    0.1925    1.8676 C   0  0  0  0  0  0  0  0  0  0  0  0
   -0.5667    0.7987    0.6265 C   0  0  0  0  0  0  0  0  0  0  0  0
   -0.9937    2.4888   -1.6026 O   0  0  0  0  0  0  0  0  0  0  0  0
    3.4223    5.3288   -4.3652 C   0  0  0  0  0  3  0  0  0  0  0  0
    2.4922    6.4684   -4.3879 C   0  0  0  0  0  0  0  0  0  0  0  0
    2.0758    7.3804   -2.7410 S   0  0  0  0  0  0  0  0  0  0  0  0
    0.3441    6.8974   -2.4516 C   0  0  0  0  0  0  0  0  0  0  0  0
    0.0888    6.0171   -1.2258 C   0  0  2  0  0  0  0  0  0  0  0  0
    0.2698    6.5878   -0.2989 H   0  0  0  0  0  0  0  0  0  0  0  0
    0.9742    4.8769   -1.2228 N   0  0  0  0  0  0  0  0  0  0  0  0
    1.2535    4.1346   -0.1452 C   0  0  0  0  0  0  0  0  0  0  0  0
    2.2476    3.0135   -0.3668 C   0  0  0  0  0  0  0  0  0  0  0  0
    0.7369    4.3141    0.9649 O   0  0  0  0  0  0  0  0  0  0  0  0
   -1.3891    5.5565   -1.2203 C   0  0  0  0  0  0  0  0  0  0  0  0
   -1.7940    5.0537   -0.0314 N   0  0  0  0  0  0  0  0  0  0  0  0
   -3.0387    4.3380    0.0834 C   0  0  0  0  0  0  0  0  0  0  0  0
   -2.1065    5.6449   -2.2060 O   0  0  0  0  0  0  0  0  0  0  0  0
    1.7779    2.8277   -3.1978 H   0  0  0  0  0  0  0  0  0  0  0  0
    0.6123    4.5521   -5.2540 H   0  0  0  0  0  0  0  0  0  0  0  0
    2.2792    2.9545   -6.2539 H   0  0  0  0  0  0  0  0  0  0  0  0
    0.6007    2.5729   -6.7076 H   0  0  0  0  0  0  0  0  0  0  0  0
    2.3200    1.2307   -4.5529 H   0  0  0  0  0  0  0  0  0  0  0  0
    1.7354    0.4639   -6.0399 H   0  0  0  0  0  0  0  0  0  0  0  0
    0.4137   -0.2094   -4.0320 H   0  0  0  0  0  0  0  0  0  0  0  0
   -0.5788    0.5022   -5.3141 H   0  0  0  0  0  0  0  0  0  0  0  0
   -0.9389    3.7242   -3.4792 H   0  0  0  0  0  0  0  0  0  0  0  0
   -1.2659    2.9623   -5.0584 H   0  0  0  0  0  0  0  0  0  0  0  0
   -0.3358   -0.4997   -2.4140 H   0  0  0  0  0  0  0  0  0  0  0  0
   -0.5585   -3.7012    0.1427 H   0  0  0  0  0  0  0  0  0  0  0  0
   -0.4775   -7.1365   -0.9607 H   0  0  0  0  0  0  0  0  0  0  0  0
   -1.4673   -7.6706    0.4318 H   0  0  0  0  0  0  0  0  0  0  0  0
    0.3237   -7.6540    0.5546 H   0  0  0  0  0  0  0  0  0  0  0  0
   -0.7471   -7.4856    2.6064 H   0  0  0  0  0  0  0  0  0  0  0  0
    0.4014   -8.3859    4.3398 H   0  0  0  0  0  0  0  0  0  0  0  0
   -1.3170   -8.8515    4.3721 H   0  0  0  0  0  0  0  0  0  0  0  0
    0.6526   -8.7266    6.7253 H   0  0  0  0  0  0  0  0  0  0  0  0
   -0.0552  -10.1953    6.0152 H   0  0  0  0  0  0  0  0  0  0  0  0
   -0.8107   -7.2004    7.9853 H   0  0  0  0  0  0  0  0  0  0  0  0
   -2.5350   -7.6085    8.1407 H   0  0  0  0  0  0  0  0  0  0  0  0
   -2.0949   -5.8041    6.4583 H   0  0  0  0  0  0  0  0  0  0  0  0
   -2.8882   -7.2053    5.7184 H   0  0  0  0  0  0  0  0  0  0  0  0
   -2.1563  -10.9397    6.8108 H   0  0  0  0  0  0  0  0  0  0  0  0
   -3.0235   -9.6329    5.9636 H   0  0  0  0  0  0  0  0  0  0  0  0
   -3.2107   -9.8398    7.7234 H   0  0  0  0  0  0  0  0  0  0  0  0
   -0.7820   -4.3280    5.5333 H   0  0  0  0  0  0  0  0  0  0  0  0
   -0.7183   -2.6504    3.7089 H   0  0  0  0  0  0  0  0  0  0  0  0
   -0.6379    0.8150    2.7679 H   0  0  0  0  0  0  0  0  0  0  0  0
   -0.5432    1.8788    0.5104 H   0  0  0  0  0  0  0  0  0  0  0  0
    4.4844    5.5378   -4.5185 H   0  0  0  0  0  0  0  0  0  0  0  0
    1.4819    6.2531   -4.7697 H   0  0  0  0  0  0  0  0  0  0  0  0
    2.8919    7.2874   -5.0020 H   0  0  0  0  0  0  0  0  0  0  0  0
   -0.0233    6.3709   -3.3454 H   0  0  0  0  0  0  0  0  0  0  0  0
   -0.2745    7.8010   -2.3604 H   0  0  0  0  0  0  0  0  0  0  0  0
    1.3158    4.5664   -2.1518 H   0  0  0  0  0  0  0  0  0  0  0  0
    2.8287    2.8818    0.5549 H   0  0  0  0  0  0  0  0  0  0  0  0
    2.9250    3.1808   -1.2169 H   0  0  0  0  0  0  0  0  0  0  0  0
    1.6922    2.0783   -0.5398 H   0  0  0  0  0  0  0  0  0  0  0  0
   -1.0346    4.8354    0.6229 H   0  0  0  0  0  0  0  0  0  0  0  0
   -3.7640    4.7736   -0.6163 H   0  0  0  0  0  0  0  0  0  0  0  0
   -3.4310    4.4211    1.1080 H   0  0  0  0  0  0  0  0  0  0  0  0
   -2.9138    3.2727   -0.1740 H   0  0  0  0  0  0  0  0  0  0  0  0
  2  1  2  0  0  0  0
  2  3  1  0  0  0  0
  3 49  1  0  0  0  0
  4 50  1  6  0  0  0
  4  9  1  0  0  0  0
  4  3  1  0  0  0  0
  5  6  1  0  0  0  0
  5  4  1  0  0  0  0
  6  7  1  0  0  0  0
  6 53  1  0  0  0  0
  7 55  1  0  0  0  0
  7  8  1  0  0  0  0
  8 10  1  0  0  0  0
  9  8  1  0  0  0  0
  9 57  1  0  0  0  0
 10 11  1  0  0  0  0
 10 34  2  0  0  0  0
 11 12  1  0  0  0  0
 12 13  1  0  0  0  0
 12 33  2  0  0  0  0
 13 14  2  0  0  0  0
 14 15  1  0  0  0  0
 14 31  1  0  0  0  0
 15 16  1  0  0  0  0
 16 30  1  0  0  0  0
 17 16  2  0  0  0  0
 17 20  1  0  0  0  0
 18 17  1  0  0  0  0
 19 62  1  0  0  0  0
 19 18  1  0  0  0  0
 19 63  1  0  0  0  0
 20 21  2  0  0  0  0
 21 29  1  0  0  0  0
 21 22  1  0  0  0  0
 22 27  1  0  0  0  0
 23 22  1  0  0  0  0
 23 24  1  0  0  0  0
 24 67  1  0  0  0  0
 24 25  1  0  0  0  0
 25 26  1  0  0  0  0
 26 69  1  0  0  0  0
 26 70  1  0  0  0  0
 27 71  1  0  0  0  0
 27 26  1  0  0  0  0
 28 25  1  0  0  0  0
 28 75  1  0  0  0  0
 29 76  1  0  0  0  0
 30 77  1  0  0  0  0
 30 29  2  0  0  0  0
 32 31  2  0  0  0  0
 32 78  1  0  0  0  0
 33 32  1  0  0  0  0
 35  2  1  0  0  0  0
 36 35  1  0  0  0  0
 36 37  1  0  0  0  0
 37 38  1  0  0  0  0
 38 84  1  0  0  0  0
 38 39  1  0  0  0  0
 39 41  1  0  0  0  0
 39 45  1  0  0  0  0
 39 40  1  1  0  0  0
 41 42  1  0  0  0  0
 42 44  2  0  0  0  0
 43 42  1  0  0  0  0
 43 86  1  0  0  0  0
 45 46  1  0  0  0  0
 46 47  1  0  0  0  0
 46 89  1  0  0  0  0
 47 91  1  0  0  0  0
 48 45  2  0  0  0  0
 51  5  1  0  0  0  0
 52  5  1  0  0  0  0
 54  6  1  0  0  0  0
 56  7  1  0  0  0  0
 58  9  1  0  0  0  0
 59 11  1  0  0  0  0
 60 15  1  0  0  0  0
 61 19  1  0  0  0  0
 64 20  1  0  0  0  0
 65 23  1  0  0  0  0
 66 23  1  0  0  0  0
 68 24  1  0  0  0  0
 72 27  1  0  0  0  0
 73 28  1  0  0  0  0
 74 28  1  0  0  0  0
 79 33  1  0  0  0  0
 80 35  1  0  0  0  0
 81 36  1  0  0  0  0
 82 36  1  0  0  0  0
 83 38  1  0  0  0  0
 85 41  1  0  0  0  0
 87 43  1  0  0  0  0
 88 43  1  0  0  0  0
 90 47  1  0  0  0  0
 92 47  1  0  0  0  0
M  END
