92
-1 1
O         6.850197    9.128639    6.355868
C         6.244334   10.026806    5.767026
N         4.902589   10.244381    6.185716
C         3.742805   10.407374    5.320168
C         3.725982    9.412674    4.150827
C         3.586650    7.983375    4.674768
C         2.361271    7.862022    5.579042
N         2.389894    8.850858    6.648815
C         2.488320   10.228051    6.177403
C         2.171337    8.628471    7.979474
N         2.282003    7.294396    8.376581
C         2.000627    6.750707    9.613126
N         2.286195    5.455370    9.702635
C         2.027179    4.838032   10.863674
N         2.359971    3.510975   10.871952
C         2.256523    2.537935   11.864608
C         2.746795    1.256121   11.530978
O         3.253747    1.146127   10.274012
C         3.804017   -0.069139    9.855895
C         2.688829    0.202341   12.439084
C         2.157285    0.393054   13.726973
N         2.109767   -0.651894   14.675837
C         2.886212   -1.845743   14.413455
C         3.007580   -2.683759   15.689824
N         1.730792   -3.013801   16.295198
C         0.960683   -1.801508   16.510859
C         0.804675   -0.950225   15.250870
C         1.008063   -4.080069   15.639520
C         1.684130    1.666420   14.056310
C         1.722687    2.717120   13.142137
N         1.494198    5.405657   11.945590
C         1.218575    6.707371   11.834459
C         1.445695    7.459661   10.697220
O         1.921385    9.517527    8.774042
C         6.837153   10.876277    4.770595
C         6.300235   12.023195    4.204456
S         6.209973   14.020041    5.537272
C         4.403628   14.202148    5.535934
C         3.684941   13.912135    6.861958
H         3.756251   14.786134    7.530344
N         4.261357   12.788689    7.576137
C         4.181051   12.635385    8.909738
C         4.873840   11.412548    9.466337
O         3.540519   13.397262    9.637330
C         2.185141   13.604974    6.628752
N         1.449931   13.634020    7.767062
C         0.117077   13.091033    7.823160
O         1.723944   13.307480    5.535814
H         4.728094    9.554507    6.912838
H         3.687938   11.433695    4.931064
H         4.649360    9.525083    3.563848
H         2.878368    9.656133    3.486230
H         4.492747    7.709380    5.239877
H         3.491677    7.267742    3.842906
H         2.266087    6.845929    5.981330
H         1.447050    8.037017    4.978892
H         2.522136   10.889922    7.048977
H         1.597163   10.498320    5.586666
H         2.716111    6.624196    7.755313
H         2.772504    3.190424   10.004588
H         4.174217    0.085691    8.834973
H         3.051376   -0.877315    9.843345
H         4.647164   -0.378198   10.498399
H         3.048157   -0.779205   12.138112
H         3.894137   -1.553760   14.082405
H         2.441144   -2.462203   13.599027
H         3.598179   -2.106409   16.421856
H         3.561381   -3.611570   15.475939
H         1.477581   -1.195061   17.274740
H        -0.030820   -2.064957   16.911690
H         0.289524   -0.015423   15.506462
H         0.161251   -1.475196   14.510021
H         1.636665   -4.983687   15.604383
H         0.680804   -3.863370   14.600262
H         0.106741   -4.326836   16.222232
H         1.297202    1.856987   15.058884
H         1.358243    3.706157   13.410613
H         0.787107    7.183826   12.721427
H         1.234037    8.522245   10.629924
H         7.898665   10.663106    4.622640
H         5.224831   12.155263    4.080209
H         6.883703   12.517870    3.426340
H         3.968173   13.543977    4.763678
H         4.118221   15.220053    5.229696
H         4.831432   12.126545    7.044231
H         5.260989   11.651211   10.464939
H         5.683846   11.046363    8.821410
H         4.114440   10.621385    9.572838
H         1.984860   13.732488    8.636363
H        -0.310520   13.107314    6.812312
H        -0.518353   13.692345    8.491060
H         0.119330   12.048184    8.185805
