92
-1 1
C         8.801162    5.780307    0.927078
O         7.873950    5.346931    1.870838
C         6.551109    5.399430    1.422675
C         5.661589    4.841483    2.521736
O         4.296065    4.925761    2.167207
C         3.847173    4.096511    1.188521
C         3.282481    4.640027    0.060096
C         3.850497    2.674437    1.379562
O         4.274241    2.240456    2.583478
C         4.192619    0.859144    2.858488
C         3.370572    1.855471    0.382857
C         2.821130    2.414807   -0.796615
C         2.713734    3.814769   -0.943880
N         2.046214    4.374959   -1.992244
C         1.474471    3.538386   -2.818555
N         1.542321    2.190994   -2.813112
C         2.248724    1.628583   -1.854186
N         2.445840    0.273094   -1.844005
C         1.524560   -0.721953   -2.076151
C         0.337355   -0.619455   -2.717048
C        -0.616149   -1.729525   -2.719997
O        -1.723253   -1.612620   -3.231143
C        -0.216906   -3.008742   -2.027271
C         0.999045   -3.119813   -1.461223
S         1.147839   -1.135892    0.970550
C        -0.546776   -0.626821    0.557224
C        -1.388209   -0.136458    1.752288
H        -1.149619   -0.780787    2.616216
N        -2.807397   -0.203730    1.487204
C        -3.521642   -1.349383    1.564090
C        -5.002868   -1.218948    1.266488
O        -3.023790   -2.435712    1.818269
C        -1.085062    1.327699    2.111448
N         0.221960    1.627443    2.237118
C         0.679329    2.975793    2.456993
O        -1.987183    2.145636    2.253404
C         2.007384   -2.044588   -1.536184
O         3.201149   -2.222525   -1.349133
N        -1.178379   -4.042324   -1.881517
C        -1.662948   -4.612256   -3.135468
C        -2.720924   -5.682109   -2.860632
N        -3.808239   -5.209040   -2.017055
C        -3.243547   -4.769958   -0.742342
C        -2.203626   -3.673794   -0.901481
C        -4.633689   -4.209345   -2.673325
C        -5.901758   -3.888637   -1.913747
C        -6.562295   -4.867820   -1.163988
C        -7.742871   -4.568327   -0.488334
C        -8.287589   -3.285126   -0.557404
C        -7.638489   -2.303713   -1.304173
C        -6.450738   -2.604184   -1.971164
H         9.802592    5.699697    1.372080
H         8.630937    6.835204    0.632178
H         8.774314    5.164247    0.006476
H         6.421221    4.805757    0.494562
H         6.244671    6.439665    1.186870
H         5.779616    5.445348    3.431775
H         5.955718    3.807780    2.756560
H         3.231779    5.723490   -0.049314
H         4.524160    0.730615    3.895397
H         4.850803    0.277452    2.190891
H         3.162894    0.478676    2.749509
H         3.278406    0.780758    0.547215
H         0.880665    3.971625   -3.632466
H         3.201840   -0.082230   -1.264022
H         0.019226    0.314844   -3.176719
H         1.292639   -4.037085   -0.950116
H        -1.069031   -1.496331    0.135843
H        -0.545396    0.154148   -0.223313
H        -3.269384    0.700699    1.462610
H        -5.208384   -1.709455    0.303399
H        -5.353873   -0.178789    1.216195
H        -5.567990   -1.765288    2.033411
H         0.886431    0.897452    1.946363
H         0.887153    3.503246    1.509594
H         1.602880    2.971539    3.054047
H        -0.097936    3.535022    2.993866
H        -0.808358   -5.076454   -3.655947
H        -2.078511   -3.844122   -3.812604
H        -2.249090   -6.538887   -2.350385
H        -3.129069   -6.049050   -3.817119
H        -2.783786   -5.650015   -0.263120
H        -4.035086   -4.410030   -0.069277
H        -1.723409   -3.502707    0.071261
H        -2.707398   -2.725250   -1.176099
H        -4.917690   -4.617441   -3.660482
H        -4.099857   -3.260351   -2.883021
H        -6.115518   -5.863143   -1.108269
H        -8.240910   -5.341517    0.102161
H        -9.211018   -3.049295   -0.023066
H        -8.048629   -1.292234   -1.355528
H        -5.930895   -1.825794   -2.536984
