-1 1
 OpenBabel05192410563D

 92 96  0  0  1  0  0  0  0  0999 V2000
    9.9106    5.3086   -2.7792 C   0  0  0  0  0  0  0  0  0  0  0  0
    9.8073    4.8582   -1.4654 O   0  0  0  0  0  0  0  0  0  0  0  0
    8.6127    5.2248   -0.8392 C   0  0  0  0  0  0  0  0  0  0  0  0
    8.6105    4.6173    0.5542 C   0  0  0  0  0  0  0  0  0  0  0  0
    7.4544    4.9886    1.2770 O   0  0  0  0  0  0  0  0  0  0  0  0
    6.2825    4.3983    0.9158 C   0  0  0  0  0  0  0  0  0  0  0  0
    5.2757    5.1574    0.3729 C   0  0  0  0  0  0  0  0  0  0  0  0
    6.0724    3.0040    1.1618 C   0  0  0  0  0  0  0  0  0  0  0  0
    7.1023    2.3483    1.7408 O   0  0  0  0  0  0  0  0  0  0  0  0
    6.9511    0.9848    2.0297 C   0  0  0  0  0  0  0  0  0  0  0  0
    4.8669    2.4294    0.8166 C   0  0  0  0  0  0  0  0  0  0  0  0
    3.8327    3.2065    0.2385 C   0  0  0  0  0  0  0  0  0  0  0  0
    4.0238    4.5883    0.0255 C   0  0  0  0  0  0  0  0  0  0  0  0
    3.0529    5.3869   -0.5069 N   0  0  0  0  0  0  0  0  0  0  0  0
    1.9297    4.7872   -0.8050 C   0  0  0  0  0  0  0  0  0  0  0  0
    1.6198    3.4862   -0.6688 N   0  0  0  0  0  0  0  0  0  0  0  0
    2.5436    2.6815   -0.1665 C   0  0  0  0  0  0  0  0  0  0  0  0
    2.2967    1.3651   -0.0264 N   0  0  0  0  0  0  0  0  0  0  0  0
    1.1667    0.5952   -0.3189 C   0  0  0  0  0  0  0  0  0  0  0  0
   -0.0203    0.9701   -0.8537 C   0  0  0  0  0  0  0  0  0  0  0  0
   -1.1364    0.0395   -1.1716 C   0  0  0  0  0  0  0  0  0  0  0  0
   -2.2264    0.5786   -1.5789 O   0  0  0  0  0  0  0  0  0  0  0  0
   -0.8986   -1.3196   -0.9885 C   0  0  1  0  0  3  0  0  0  0  0  0
    0.2154   -1.7367   -0.1156 C   0  0  2  0  0  0  0  0  0  0  0  0
   -0.2657   -1.8132    1.7500 S   0  0  0  0  0  0  0  0  0  0  0  0
   -1.4631   -0.4691    1.9709 C   0  0  0  0  0  0  0  0  0  0  0  0
   -2.9595   -0.8067    1.8964 C   0  0  2  0  0  0  0  0  0  0  0  0
   -3.1015   -1.9001    1.9580 H   0  0  0  0  0  0  0  0  0  0  0  0
   -3.5804   -0.3423    0.6586 N   0  0  0  0  0  0  0  0  0  0  0  0
   -4.7457   -0.8227    0.1915 C   0  0  0  0  0  0  0  0  0  0  0  0
   -5.2121   -0.2152   -1.1103 C   0  0  0  0  0  0  0  0  0  0  0  0
   -5.4280   -1.6677    0.7876 O   0  0  0  0  0  0  0  0  0  0  0  0
   -3.6773   -0.2031    3.1411 C   0  0  0  0  0  0  0  0  0  0  0  0
   -4.9591   -0.6104    3.2809 N   0  0  0  0  0  0  0  0  0  0  0  0
   -5.8146   -0.1161    4.3257 C   0  0  0  0  0  0  0  0  0  0  0  0
   -3.1180    0.5439    3.9266 O   0  0  0  0  0  0  0  0  0  0  0  0
    1.4201   -0.8339   -0.0536 C   0  0  0  0  0  0  0  0  0  0  0  0
    2.5372   -1.2285    0.2485 O   0  0  0  0  0  0  0  0  0  0  0  0
   -1.7092   -2.3551   -1.5165 N   0  0  0  0  0  0  0  0  0  0  0  0
   -2.4079   -2.1007   -2.7573 C   0  0  0  0  0  0  0  0  0  0  0  0
   -2.7572   -3.4235   -3.4434 C   0  0  0  0  0  0  0  0  0  0  0  0
   -3.4915   -4.3477   -2.5881 N   0  0  0  0  0  0  0  0  0  0  0  0
   -2.7238   -4.5766   -1.3686 C   0  0  0  0  0  0  0  0  0  0  0  0
   -2.3817   -3.2867   -0.6271 C   0  0  0  0  0  0  0  0  0  0  0  0
   -4.8627   -3.9314   -2.3413 C   0  0  0  0  0  0  0  0  0  0  0  0
   -5.6756   -4.9915   -1.6344 C   0  0  0  0  0  0  0  0  0  0  0  0
   -5.7121   -6.3008   -2.1280 C   0  0  0  0  0  0  0  0  0  0  0  0
   -6.4727   -7.2773   -1.4907 C   0  0  0  0  0  0  0  0  0  0  0  0
   -7.2048   -6.9569   -0.3450 C   0  0  0  0  0  0  0  0  0  0  0  0
   -7.1622   -5.6584    0.1588 C   0  0  0  0  0  0  0  0  0  0  0  0
   -6.3983   -4.6789   -0.4794 C   0  0  0  0  0  0  0  0  0  0  0  0
   10.8759    4.9696   -3.1799 H   0  0  0  0  0  0  0  0  0  0  0  0
    9.8719    6.4145   -2.8426 H   0  0  0  0  0  0  0  0  0  0  0  0
    9.1018    4.9054   -3.4201 H   0  0  0  0  0  0  0  0  0  0  0  0
    7.7348    4.8610   -1.4113 H   0  0  0  0  0  0  0  0  0  0  0  0
    8.5165    6.3278   -0.7649 H   0  0  0  0  0  0  0  0  0  0  0  0
    9.4683    5.0011    1.1236 H   0  0  0  0  0  0  0  0  0  0  0  0
    8.7103    3.5231    0.4863 H   0  0  0  0  0  0  0  0  0  0  0  0
    5.4329    6.2230    0.2038 H   0  0  0  0  0  0  0  0  0  0  0  0
    7.8886    0.6563    2.4945 H   0  0  0  0  0  0  0  0  0  0  0  0
    6.7741    0.3894    1.1171 H   0  0  0  0  0  0  0  0  0  0  0  0
    6.1199    0.8078    2.7339 H   0  0  0  0  0  0  0  0  0  0  0  0
    4.7072    1.3699    1.0147 H   0  0  0  0  0  0  0  0  0  0  0  0
    1.1313    5.4122   -1.2244 H   0  0  0  0  0  0  0  0  0  0  0  0
    3.0418    0.7582    0.3057 H   0  0  0  0  0  0  0  0  0  0  0  0
   -0.2066    2.0181   -1.0851 H   0  0  0  0  0  0  0  0  0  0  0  0
    0.5479   -2.7658   -0.3067 H   0  0  0  0  0  0  0  0  0  0  0  0
   -1.2071    0.3543    1.2909 H   0  0  0  0  0  0  0  0  0  0  0  0
   -1.2636   -0.0902    2.9816 H   0  0  0  0  0  0  0  0  0  0  0  0
   -3.0283    0.1960   -0.0428 H   0  0  0  0  0  0  0  0  0  0  0  0
   -5.7777   -0.9652   -1.6776 H   0  0  0  0  0  0  0  0  0  0  0  0
   -4.3625    0.1759   -1.6889 H   0  0  0  0  0  0  0  0  0  0  0  0
   -5.8996    0.6113   -0.8707 H   0  0  0  0  0  0  0  0  0  0  0  0
   -5.3397   -1.1946    2.5297 H   0  0  0  0  0  0  0  0  0  0  0  0
   -6.2570   -0.9437    4.9037 H   0  0  0  0  0  0  0  0  0  0  0  0
   -6.6368    0.4994    3.9230 H   0  0  0  0  0  0  0  0  0  0  0  0
   -5.2106    0.5041    5.0004 H   0  0  0  0  0  0  0  0  0  0  0  0
   -1.7534   -1.5040   -3.4098 H   0  0  0  0  0  0  0  0  0  0  0  0
   -3.3205   -1.4922   -2.6148 H   0  0  0  0  0  0  0  0  0  0  0  0
   -1.8228   -3.9234   -3.7528 H   0  0  0  0  0  0  0  0  0  0  0  0
   -3.3485   -3.2285   -4.3540 H   0  0  0  0  0  0  0  0  0  0  0  0
   -1.7863   -5.0842   -1.6539 H   0  0  0  0  0  0  0  0  0  0  0  0
   -3.2831   -5.2560   -0.7071 H   0  0  0  0  0  0  0  0  0  0  0  0
   -1.7263   -3.5207    0.2236 H   0  0  0  0  0  0  0  0  0  0  0  0
   -3.3077   -2.8636   -0.1882 H   0  0  0  0  0  0  0  0  0  0  0  0
   -5.3229   -3.7229   -3.3234 H   0  0  0  0  0  0  0  0  0  0  0  0
   -4.9450   -2.9952   -1.7582 H   0  0  0  0  0  0  0  0  0  0  0  0
   -5.1159   -6.5429   -3.0114 H   0  0  0  0  0  0  0  0  0  0  0  0
   -6.4936   -8.2965   -1.8856 H   0  0  0  0  0  0  0  0  0  0  0  0
   -7.7999   -7.7233    0.1582 H   0  0  0  0  0  0  0  0  0  0  0  0
   -7.7189   -5.4033    1.0639 H   0  0  0  0  0  0  0  0  0  0  0  0
   -6.3391   -3.6650   -0.0693 H   0  0  0  0  0  0  0  0  0  0  0  0
  1  2  1  0  0  0  0
  2  3  1  0  0  0  0
  3 56  1  0  0  0  0
  3  4  1  0  0  0  0
  4 57  1  0  0  0  0
  4  5  1  0  0  0  0
  6  8  1  0  0  0  0
  6  5  1  0  0  0  0
  7  6  2  0  0  0  0
  8  9  1  0  0  0  0
  9 10  1  0  0  0  0
 10 60  1  0  0  0  0
 10 62  1  0  0  0  0
 11 63  1  0  0  0  0
 11  8  2  0  0  0  0
 12 11  1  0  0  0  0
 13 12  2  0  0  0  0
 13  7  1  0  0  0  0
 14 13  1  0  0  0  0
 15 16  1  0  0  0  0
 15 14  2  0  0  0  0
 16 17  2  0  0  0  0
 17 18  1  0  0  0  0
 17 12  1  0  0  0  0
 18 65  1  0  0  0  0
 19 37  1  0  0  0  0
 19 18  1  0  0  0  0
 20 19  2  0  0  0  0
 21 23  1  0  0  0  0
 21 20  1  0  0  0  0
 22 21  2  0  0  0  0
 23 39  1  1  0  0  0
 23 24  1  0  0  0  0
 24 67  1  6  0  0  0
 24 37  1  0  0  0  0
 24 25  1  0  0  0  0
 25 26  1  0  0  0  0
 26 69  1  0  0  0  0
 27 28  1  1  0  0  0
 27 26  1  0  0  0  0
 27 33  1  0  0  0  0
 29 27  1  0  0  0  0
 30 29  1  0  0  0  0
 30 32  2  0  0  0  0
 31 73  1  0  0  0  0
 31 30  1  0  0  0  0
 33 34  1  0  0  0  0
 33 36  2  0  0  0  0
 34 35  1  0  0  0  0
 35 75  1  0  0  0  0
 35 77  1  0  0  0  0
 37 38  2  0  0  0  0
 39 44  1  0  0  0  0
 40 79  1  0  0  0  0
 40 39  1  0  0  0  0
 41 40  1  0  0  0  0
 41 42  1  0  0  0  0
 42 45  1  0  0  0  0
 42 43  1  0  0  0  0
 43 83  1  0  0  0  0
 43 44  1  0  0  0  0
 44 85  1  0  0  0  0
 44 84  1  0  0  0  0
 45 87  1  0  0  0  0
 45 46  1  0  0  0  0
 46 51  1  0  0  0  0
 47 46  2  0  0  0  0
 47 48  1  0  0  0  0
 48 49  2  0  0  0  0
 49 90  1  0  0  0  0
 49 50  1  0  0  0  0
 50 91  1  0  0  0  0
 51 92  1  0  0  0  0
 51 50  2  0  0  0  0
 52  1  1  0  0  0  0
 53  1  1  0  0  0  0
 54  1  1  0  0  0  0
 55  3  1  0  0  0  0
 58  4  1  0  0  0  0
 59  7  1  0  0  0  0
 61 10  1  0  0  0  0
 64 15  1  0  0  0  0
 66 20  1  0  0  0  0
 68 26  1  0  0  0  0
 70 29  1  0  0  0  0
 71 31  1  0  0  0  0
 72 31  1  0  0  0  0
 74 34  1  0  0  0  0
 76 35  1  0  0  0  0
 78 40  1  0  0  0  0
 80 41  1  0  0  0  0
 81 41  1  0  0  0  0
 82 43  1  0  0  0  0
 86 45  1  0  0  0  0
 88 47  1  0  0  0  0
 89 48  1  0  0  0  0
M  END
