-1 1
 OpenBabel05232413493D

 87 89  0  0  1  0  0  0  0  0999 V2000
   -1.9486    5.1087    6.4263 O   0  0  0  0  0  0  0  0  0  0  0  0
   -2.0723    3.9167    6.1667 C   0  0  0  0  0  0  0  0  0  0  0  0
   -1.7775    3.5130    4.8743 N   0  0  0  0  0  0  0  0  0  0  0  0
   -2.1942    2.4259    4.0793 C   0  0  0  0  0  0  0  0  0  0  0  0
   -1.3363    2.0117    3.0548 C   0  0  0  0  0  0  0  0  0  0  0  0
   -1.7104    0.9943    2.1705 C   0  0  0  0  0  0  0  0  0  0  0  0
   -0.7707    0.6601    1.1658 N   0  0  0  0  0  0  0  0  0  0  0  0
   -0.8730   -0.2785    0.1779 C   0  0  0  0  0  0  0  0  0  0  0  0
    0.2809   -0.3184   -0.6186 N   0  0  0  0  0  0  0  0  0  0  0  0
    0.5383   -1.1310   -1.7031 C   0  0  0  0  0  0  0  0  0  0  0  0
    1.7389   -0.9373   -2.2423 N   0  0  0  0  0  0  0  0  0  0  0  0
    2.0709   -1.6855   -3.3015 C   0  0  0  0  0  0  0  0  0  0  0  0
    3.3263   -1.4229   -3.7920 N   0  0  0  0  0  0  0  0  0  0  0  0
    4.0349   -1.9723   -4.8498 C   0  0  0  0  0  0  0  0  0  0  0  0
    5.3405   -1.4488   -5.0483 C   0  0  0  0  0  0  0  0  0  0  0  0
    5.7003   -0.4685   -4.1797 O   0  0  0  0  0  0  0  0  0  0  0  0
    6.9685    0.1134   -4.2942 C   0  0  0  0  0  0  0  0  0  0  0  0
    6.1482   -1.9328   -6.0659 C   0  0  0  0  0  0  0  0  0  0  0  0
    5.6793   -2.9429   -6.9227 C   0  0  0  0  0  0  0  0  0  0  0  0
    6.4972   -3.4347   -8.0788 C   0  0  0  0  0  0  0  0  0  0  0  0
    7.8401   -3.6601   -7.8533 N   0  0  0  0  0  0  0  0  0  0  0  0
    8.4206   -4.0388   -6.5739 C   0  0  0  0  0  0  0  0  0  0  0  0
    8.8355   -5.5084   -6.6054 C   0  0  0  0  0  0  0  0  0  0  0  0
    9.6811   -5.7894   -7.6884 O   0  0  0  0  0  0  0  0  0  0  0  0
    9.0730   -5.4819   -8.9197 C   0  0  0  0  0  0  0  0  0  0  0  0
    8.6830   -4.0114   -8.9855 C   0  0  0  0  0  0  0  0  0  0  0  0
    5.9983   -3.5899   -9.1787 O   0  0  0  0  0  0  0  0  0  0  0  0
    4.3895   -3.4317   -6.7505 C   0  0  0  0  0  0  0  0  0  0  0  0
    3.5759   -2.9662   -5.7171 C   0  0  0  0  0  0  0  0  0  0  0  0
    1.3070   -2.6130   -3.8724 N   0  0  0  0  0  0  0  0  0  0  0  0
    0.1058   -2.7917   -3.3165 C   0  0  0  0  0  0  0  0  0  0  0  0
   -0.3577   -2.0863   -2.2217 C   0  0  0  0  0  0  0  0  0  0  0  0
   -1.8244   -1.0014   -0.0144 O   0  0  0  0  0  0  0  0  0  0  0  0
   -2.9478    0.3612    2.3225 C   0  0  0  0  0  0  0  0  0  0  0  0
   -3.7841    0.7757    3.3588 C   0  0  0  0  0  0  0  0  0  0  0  0
   -3.4364    1.8044    4.2259 C   0  0  0  0  0  0  0  0  0  0  0  0
   -2.4283    2.9683    7.2413 C   0  0  0  0  0  0  0  0  0  0  0  0
   -2.4948    1.6278    7.2259 C   0  0  0  0  0  0  0  0  0  0  0  0
   -5.4921    0.8478    6.9441 S   0  0  0  0  0  1  0  0  0  0  0  0
   -5.8675    2.5075    7.5863 C   0  0  0  0  0  0  0  0  0  0  0  0
   -6.8705    3.3042    6.7302 C   0  0  2  0  0  0  0  0  0  0  0  0
   -7.1781    4.2151    7.2729 H   0  0  0  0  0  0  0  0  0  0  0  0
   -8.0471    2.5178    6.5025 N   0  0  0  0  0  0  0  0  0  0  0  0
   -9.2551    3.0609    6.2335 C   0  0  0  0  0  0  0  0  0  0  0  0
  -10.2857    2.0722    5.7160 C   0  0  0  0  0  0  0  0  0  0  0  0
   -9.5156    4.2442    6.3809 O   0  0  0  0  0  0  0  0  0  0  0  0
   -6.3005    3.7916    5.3830 C   0  0  0  0  0  0  0  0  0  0  0  0
   -5.1818    4.5648    5.4703 N   0  0  0  0  0  0  0  0  0  0  0  0
   -4.6096    5.1796    4.2993 C   0  0  0  0  0  0  0  0  0  0  0  0
   -6.8291    3.5582    4.3134 O   0  0  0  0  0  0  0  0  0  0  0  0
   -1.4045    4.3000    4.3538 H   0  0  0  0  0  0  0  0  0  0  0  0
   -0.3585    2.4945    2.9576 H   0  0  0  0  0  0  0  0  0  0  0  0
    0.0822    1.2011    1.2054 H   0  0  0  0  0  0  0  0  0  0  0  0
    1.0593    0.2972   -0.4130 H   0  0  0  0  0  0  0  0  0  0  0  0
    3.8185   -0.7003   -3.2802 H   0  0  0  0  0  0  0  0  0  0  0  0
    7.0437    0.8673   -3.5014 H   0  0  0  0  0  0  0  0  0  0  0  0
    7.1030    0.6069   -5.2723 H   0  0  0  0  0  0  0  0  0  0  0  0
    7.7719   -0.6317   -4.1572 H   0  0  0  0  0  0  0  0  0  0  0  0
    7.1456   -1.5207   -6.2222 H   0  0  0  0  0  0  0  0  0  0  0  0
    7.6998   -3.8799   -5.7635 H   0  0  0  0  0  0  0  0  0  0  0  0
    9.3076   -3.4110   -6.3738 H   0  0  0  0  0  0  0  0  0  0  0  0
    7.9215   -6.1357   -6.6559 H   0  0  0  0  0  0  0  0  0  0  0  0
    9.3817   -5.7705   -5.6878 H   0  0  0  0  0  0  0  0  0  0  0  0
    8.1680   -6.1042   -9.0696 H   0  0  0  0  0  0  0  0  0  0  0  0
    9.7974   -5.7290   -9.7087 H   0  0  0  0  0  0  0  0  0  0  0  0
    8.1296   -3.7959   -9.9071 H   0  0  0  0  0  0  0  0  0  0  0  0
    9.5952   -3.3902   -8.9531 H   0  0  0  0  0  0  0  0  0  0  0  0
    4.0123   -4.1898   -7.4390 H   0  0  0  0  0  0  0  0  0  0  0  0
    2.5726   -3.3573   -5.5662 H   0  0  0  0  0  0  0  0  0  0  0  0
   -0.5298   -3.5531   -3.7805 H   0  0  0  0  0  0  0  0  0  0  0  0
   -1.3366   -2.2428   -1.7791 H   0  0  0  0  0  0  0  0  0  0  0  0
   -3.2417   -0.4339    1.6425 H   0  0  0  0  0  0  0  0  0  0  0  0
   -4.7539    0.2956    3.5058 H   0  0  0  0  0  0  0  0  0  0  0  0
   -4.1299    2.0703    5.0272 H   0  0  0  0  0  0  0  0  0  0  0  0
   -2.6303    3.5070    8.1708 H   0  0  0  0  0  0  0  0  0  0  0  0
   -2.7360    1.0818    8.1376 H   0  0  0  0  0  0  0  0  0  0  0  0
   -2.2887    1.0232    6.3432 H   0  0  0  0  0  0  0  0  0  0  0  0
   -4.9364    3.0973    7.6778 H   0  0  0  0  0  0  0  0  0  0  0  0
   -6.2911    2.4405    8.6018 H   0  0  0  0  0  0  0  0  0  0  0  0
   -7.8373    1.5437    6.2838 H   0  0  0  0  0  0  0  0  0  0  0  0
  -10.1705    1.9952    4.6239 H   0  0  0  0  0  0  0  0  0  0  0  0
  -11.2908    2.4516    5.9381 H   0  0  0  0  0  0  0  0  0  0  0  0
  -10.1558    1.0687    6.1463 H   0  0  0  0  0  0  0  0  0  0  0  0
   -4.7491    4.7303    6.3688 H   0  0  0  0  0  0  0  0  0  0  0  0
   -5.3251    5.8684    3.8203 H   0  0  0  0  0  0  0  0  0  0  0  0
   -4.3331    4.4189    3.5511 H   0  0  0  0  0  0  0  0  0  0  0  0
   -3.7126    5.7359    4.6007 H   0  0  0  0  0  0  0  0  0  0  0  0
  2  1  2  0  0  0  0
  2 37  1  0  0  0  0
  3  2  1  0  0  0  0
  4 36  1  0  0  0  0
  4  3  1  0  0  0  0
  5  4  2  0  0  0  0
  6 34  2  0  0  0  0
  6  5  1  0  0  0  0
  7 53  1  0  0  0  0
  7  6  1  0  0  0  0
  8  7  1  0  0  0  0
  9 54  1  0  0  0  0
  9  8  1  0  0  0  0
 10  9  1  0  0  0  0
 11 10  1  0  0  0  0
 12 11  2  0  0  0  0
 13 12  1  0  0  0  0
 13 55  1  0  0  0  0
 14 13  1  0  0  0  0
 15 14  1  0  0  0  0
 15 16  1  0  0  0  0
 17 16  1  0  0  0  0
 17 58  1  0  0  0  0
 17 56  1  0  0  0  0
 18 15  2  0  0  0  0
 19 28  2  0  0  0  0
 19 18  1  0  0  0  0
 20 21  1  0  0  0  0
 20 19  1  0  0  0  0
 21 22  1  0  0  0  0
 22 61  1  0  0  0  0
 22 60  1  0  0  0  0
 23 22  1  0  0  0  0
 23 63  1  0  0  0  0
 24 23  1  0  0  0  0
 25 24  1  0  0  0  0
 26 67  1  0  0  0  0
 26 25  1  0  0  0  0
 26 21  1  0  0  0  0
 27 20  2  0  0  0  0
 28 29  1  0  0  0  0
 29 69  1  0  0  0  0
 29 14  2  0  0  0  0
 30 31  2  0  0  0  0
 30 12  1  0  0  0  0
 31 32  1  0  0  0  0
 32 71  1  0  0  0  0
 32 10  2  0  0  0  0
 33  8  2  0  0  0  0
 34 35  1  0  0  0  0
 35 73  1  0  0  0  0
 35 36  2  0  0  0  0
 36 74  1  0  0  0  0
 37 75  1  0  0  0  0
 38 37  2  0  0  0  0
 38 76  1  0  0  0  0
 39 40  1  0  0  0  0
 40 78  1  0  0  0  0
 40 79  1  0  0  0  0
 41 42  1  1  0  0  0
 41 40  1  0  0  0  0
 43 41  1  0  0  0  0
 44 46  2  0  0  0  0
 44 43  1  0  0  0  0
 45 82  1  0  0  0  0
 45 83  1  0  0  0  0
 45 44  1  0  0  0  0
 47 48  1  0  0  0  0
 47 41  1  0  0  0  0
 48 84  1  0  0  0  0
 49 87  1  0  0  0  0
 49 48  1  0  0  0  0
 50 47  2  0  0  0  0
 51  3  1  0  0  0  0
 52  5  1  0  0  0  0
 57 17  1  0  0  0  0
 59 18  1  0  0  0  0
 62 23  1  0  0  0  0
 64 25  1  0  0  0  0
 65 25  1  0  0  0  0
 66 26  1  0  0  0  0
 68 28  1  0  0  0  0
 70 31  1  0  0  0  0
 72 34  1  0  0  0  0
 77 38  1  0  0  0  0
 80 43  1  0  0  0  0
 81 45  1  0  0  0  0
 85 49  1  0  0  0  0
 86 49  1  0  0  0  0
M  END
