-1 1
 OpenBabel05232414493D

 87 89  0  0  1  0  0  0  0  0999 V2000
    1.2202   -6.5141   11.2121 O   0  0  0  0  0  0  0  0  0  0  0  0
    1.0252   -7.7291   11.0902 C   0  0  0  0  0  0  0  0  0  0  0  0
    1.4634   -8.2700    9.8542 N   0  0  0  0  0  0  0  0  0  0  0  0
    1.0137   -9.2808    9.0124 C   0  0  0  0  0  0  0  0  0  0  0  0
    1.8611   -9.6917    7.9716 C   0  0  0  0  0  0  0  0  0  0  0  0
    1.4573  -10.6531    7.0398 C   0  0  0  0  0  0  0  0  0  0  0  0
    2.3986  -10.9766    6.0316 N   0  0  0  0  0  0  0  0  0  0  0  0
    2.2896  -11.8845    5.0183 C   0  0  0  0  0  0  0  0  0  0  0  0
    3.4524  -11.9237    4.2319 N   0  0  0  0  0  0  0  0  0  0  0  0
    3.7082  -12.7132    3.1314 C   0  0  0  0  0  0  0  0  0  0  0  0
    4.9182  -12.5284    2.6094 N   0  0  0  0  0  0  0  0  0  0  0  0
    5.2489  -13.2572    1.5368 C   0  0  0  0  0  0  0  0  0  0  0  0
    6.5146  -13.0050    1.0665 N   0  0  0  0  0  0  0  0  0  0  0  0
    7.2270  -13.5441    0.0064 C   0  0  0  0  0  0  0  0  0  0  0  0
    8.5442  -13.0399   -0.1646 C   0  0  0  0  0  0  0  0  0  0  0  0
    8.9095  -12.0845    0.7290 O   0  0  0  0  0  0  0  0  0  0  0  0
   10.1886  -11.5223    0.6428 C   0  0  0  0  0  0  0  0  0  0  0  0
    9.3566  -13.5171   -1.1815 C   0  0  0  0  0  0  0  0  0  0  0  0
    8.8815  -14.5007   -2.0654 C   0  0  0  0  0  0  0  0  0  0  0  0
    9.7061  -14.9839   -3.2201 C   0  0  0  0  0  0  0  0  0  0  0  0
   11.0415  -15.2385   -2.9810 N   0  0  0  0  0  0  0  0  0  0  0  0
   11.5966  -15.6532   -1.7015 C   0  0  0  0  0  0  0  0  0  0  0  0
   11.9845  -17.1295   -1.7568 C   0  0  0  0  0  0  0  0  0  0  0  0
   12.8399  -17.4051   -2.8334 O   0  0  0  0  0  0  0  0  0  0  0  0
   12.2551  -17.0619   -4.0665 C   0  0  0  0  0  0  0  0  0  0  0  0
   11.8934  -15.5833   -4.1084 C   0  0  0  0  0  0  0  0  0  0  0  0
    9.2200  -15.1083   -4.3297 O   0  0  0  0  0  0  0  0  0  0  0  0
    7.5809  -14.9695   -1.9202 C   0  0  0  0  0  0  0  0  0  0  0  0
    6.7620  -14.5112   -0.8878 C   0  0  0  0  0  0  0  0  0  0  0  0
    4.4762  -14.1575    0.9352 N   0  0  0  0  0  0  0  0  0  0  0  0
    3.2655  -14.3277    1.4736 C   0  0  0  0  0  0  0  0  0  0  0  0
    2.8019  -13.6404    2.5795 C   0  0  0  0  0  0  0  0  0  0  0  0
    1.3283  -12.5854    4.7938 O   0  0  0  0  0  0  0  0  0  0  0  0
    0.1952  -11.2436    7.1416 C   0  0  0  0  0  0  0  0  0  0  0  0
   -0.6353  -10.8344    8.1864 C   0  0  0  0  0  0  0  0  0  0  0  0
   -0.2561   -9.8670    9.1065 C   0  0  0  0  0  0  0  0  0  0  0  0
    0.5254   -8.5358   12.1681 C   0  0  0  0  0  3  0  0  0  0  0  0
    0.2674   -9.9024   12.2363 C   0  0  0  0  0  3  0  0  0  0  0  0
   -2.0142  -10.4567   12.0494 S   0  0  0  0  0  1  0  0  0  0  0  0
   -2.6509   -8.8399   12.5494 C   0  0  0  0  0  0  0  0  0  0  0  0
   -3.6669   -8.2244   11.5799 C   0  0  2  0  0  0  0  0  0  0  0  0
   -4.0767   -7.3040   12.0287 H   0  0  0  0  0  0  0  0  0  0  0  0
   -4.7813   -9.1097   11.3749 N   0  0  0  0  0  0  0  0  0  0  0  0
   -6.0364   -8.6525   11.1302 C   0  0  0  0  0  0  0  0  0  0  0  0
   -6.9791   -9.6940   10.5551 C   0  0  0  0  0  0  0  0  0  0  0  0
   -6.3918   -7.5078   11.3462 O   0  0  0  0  0  0  0  0  0  0  0  0
   -3.0974   -7.7989   10.2077 C   0  0  0  0  0  0  0  0  0  0  0  0
   -1.9702   -7.0475   10.2413 N   0  0  0  0  0  0  0  0  0  0  0  0
   -1.3702   -6.5453    9.0285 C   0  0  0  0  0  0  0  0  0  0  0  0
   -3.6722   -8.0625    9.1664 O   0  0  0  0  0  0  0  0  0  0  0  0
    2.0368   -7.5693    9.3977 H   0  0  0  0  0  0  0  0  0  0  0  0
    2.8600   -9.2483    7.9010 H   0  0  0  0  0  0  0  0  0  0  0  0
    3.2633  -10.4574    6.0988 H   0  0  0  0  0  0  0  0  0  0  0  0
    4.2380  -11.3261    4.4614 H   0  0  0  0  0  0  0  0  0  0  0  0
    7.0128  -12.3029    1.6005 H   0  0  0  0  0  0  0  0  0  0  0  0
   10.2660  -10.7858    1.4517 H   0  0  0  0  0  0  0  0  0  0  0  0
   10.3444  -11.0115   -0.3233 H   0  0  0  0  0  0  0  0  0  0  0  0
   10.9776  -12.2835    0.7749 H   0  0  0  0  0  0  0  0  0  0  0  0
   10.3631  -13.1197   -1.3162 H   0  0  0  0  0  0  0  0  0  0  0  0
   10.8672  -15.4966   -0.8985 H   0  0  0  0  0  0  0  0  0  0  0  0
   12.4922  -15.0464   -1.4766 H   0  0  0  0  0  0  0  0  0  0  0  0
   11.0597  -17.7383   -1.8324 H   0  0  0  0  0  0  0  0  0  0  0  0
   12.5126  -17.4200   -0.8371 H   0  0  0  0  0  0  0  0  0  0  0  0
   11.3409  -17.6639   -4.2413 H   0  0  0  0  0  0  0  0  0  0  0  0
   12.9859  -17.3071   -4.8503 H   0  0  0  0  0  0  0  0  0  0  0  0
   11.3567  -15.3396   -5.0329 H   0  0  0  0  0  0  0  0  0  0  0  0
   12.8164  -14.9801   -4.0515 H   0  0  0  0  0  0  0  0  0  0  0  0
    7.1997  -15.7063   -2.6293 H   0  0  0  0  0  0  0  0  0  0  0  0
    5.7500  -14.8871   -0.7579 H   0  0  0  0  0  0  0  0  0  0  0  0
    2.6221  -15.0666    0.9845 H   0  0  0  0  0  0  0  0  0  0  0  0
    1.8154  -13.7893    3.0076 H   0  0  0  0  0  0  0  0  0  0  0  0
   -0.1221  -11.9931    6.4220 H   0  0  0  0  0  0  0  0  0  0  0  0
   -1.6312  -11.2722    8.2838 H   0  0  0  0  0  0  0  0  0  0  0  0
   -0.9475   -9.5830    9.8999 H   0  0  0  0  0  0  0  0  0  0  0  0
    0.3877   -7.9334   13.0699 H   0  0  0  0  0  0  0  0  0  0  0  0
    0.2863  -10.3678   13.2216 H   0  0  0  0  0  0  0  0  0  0  0  0
    0.5824  -10.5645   11.4274 H   0  0  0  0  0  0  0  0  0  0  0  0
   -1.7834   -8.1610   12.6576 H   0  0  0  0  0  0  0  0  0  0  0  0
   -3.1280   -8.9064   13.5389 H   0  0  0  0  0  0  0  0  0  0  0  0
   -4.5208  -10.0360   11.0509 H   0  0  0  0  0  0  0  0  0  0  0  0
   -6.8056   -9.7519    9.4695 H   0  0  0  0  0  0  0  0  0  0  0  0
   -8.0145   -9.3801   10.7339 H   0  0  0  0  0  0  0  0  0  0  0  0
   -6.8075  -10.6919   10.9843 H   0  0  0  0  0  0  0  0  0  0  0  0
   -1.4383   -6.9669   11.0993 H   0  0  0  0  0  0  0  0  0  0  0  0
   -2.0402   -5.8301    8.5245 H   0  0  0  0  0  0  0  0  0  0  0  0
   -1.1626   -7.3645    8.3212 H   0  0  0  0  0  0  0  0  0  0  0  0
   -0.4296   -6.0473    9.2954 H   0  0  0  0  0  0  0  0  0  0  0  0
  2  1  2  0  0  0  0
  2 37  1  0  0  0  0
  3  2  1  0  0  0  0
  4 36  1  0  0  0  0
  4  3  1  0  0  0  0
  5  4  2  0  0  0  0
  6 34  2  0  0  0  0
  6  5  1  0  0  0  0
  7 53  1  0  0  0  0
  7  6  1  0  0  0  0
  8  7  1  0  0  0  0
  9 54  1  0  0  0  0
  9  8  1  0  0  0  0
 10  9  1  0  0  0  0
 11 10  1  0  0  0  0
 12 11  2  0  0  0  0
 13 12  1  0  0  0  0
 13 55  1  0  0  0  0
 14 13  1  0  0  0  0
 15 14  1  0  0  0  0
 15 16  1  0  0  0  0
 17 16  1  0  0  0  0
 17 58  1  0  0  0  0
 17 56  1  0  0  0  0
 18 15  2  0  0  0  0
 19 28  2  0  0  0  0
 19 18  1  0  0  0  0
 20 21  1  0  0  0  0
 20 19  1  0  0  0  0
 21 22  1  0  0  0  0
 22 61  1  0  0  0  0
 22 60  1  0  0  0  0
 23 22  1  0  0  0  0
 23 63  1  0  0  0  0
 24 23  1  0  0  0  0
 25 24  1  0  0  0  0
 26 25  1  0  0  0  0
 26 67  1  0  0  0  0
 26 21  1  0  0  0  0
 27 20  2  0  0  0  0
 28 29  1  0  0  0  0
 29 69  1  0  0  0  0
 29 14  2  0  0  0  0
 30 31  2  0  0  0  0
 30 12  1  0  0  0  0
 31 32  1  0  0  0  0
 32 71  1  0  0  0  0
 32 10  2  0  0  0  0
 33  8  2  0  0  0  0
 34 35  1  0  0  0  0
 35 73  1  0  0  0  0
 35 36  2  0  0  0  0
 36 74  1  0  0  0  0
 37 38  1  0  0  0  0
 37 75  1  0  0  0  0
 38 76  1  0  0  0  0
 39 40  1  0  0  0  0
 40 78  1  0  0  0  0
 40 79  1  0  0  0  0
 41 42  1  1  0  0  0
 41 40  1  0  0  0  0
 43 41  1  0  0  0  0
 44 46  2  0  0  0  0
 44 43  1  0  0  0  0
 45 82  1  0  0  0  0
 45 83  1  0  0  0  0
 45 44  1  0  0  0  0
 47 48  1  0  0  0  0
 47 41  1  0  0  0  0
 48 84  1  0  0  0  0
 49 87  1  0  0  0  0
 49 48  1  0  0  0  0
 50 47  2  0  0  0  0
 51  3  1  0  0  0  0
 52  5  1  0  0  0  0
 57 17  1  0  0  0  0
 59 18  1  0  0  0  0
 62 23  1  0  0  0  0
 64 25  1  0  0  0  0
 65 25  1  0  0  0  0
 66 26  1  0  0  0  0
 68 28  1  0  0  0  0
 70 31  1  0  0  0  0
 72 34  1  0  0  0  0
 77 38  1  0  0  0  0
 80 43  1  0  0  0  0
 81 45  1  0  0  0  0
 85 49  1  0  0  0  0
 86 49  1  0  0  0  0
M  END
