87
-1 1
O        -1.948621    5.108656    6.426349
C        -2.072344    3.916688    6.166705
N        -1.777543    3.513023    4.874343
C        -2.194193    2.425881    4.079276
C        -1.336329    2.011664    3.054837
C        -1.710384    0.994253    2.170503
N        -0.770716    0.660127    1.165833
C        -0.872994   -0.278522    0.177882
N         0.280941   -0.318361   -0.618566
C         0.538254   -1.130983   -1.703117
N         1.738919   -0.937294   -2.242329
C         2.070940   -1.685510   -3.301459
N         3.326290   -1.422858   -3.792021
C         4.034931   -1.972267   -4.849801
C         5.340524   -1.448807   -5.048343
O         5.700314   -0.468513   -4.179703
C         6.968459    0.113353   -4.294214
C         6.148213   -1.932840   -6.065851
C         5.679322   -2.942883   -6.922689
C         6.497200   -3.434655   -8.078821
N         7.840117   -3.660067   -7.853254
C         8.420563   -4.038782   -6.573853
C         8.835495   -5.508409   -6.605449
O         9.681057   -5.789410   -7.688377
C         9.072980   -5.481859   -8.919676
C         8.682970   -4.011411   -8.985474
O         5.998347   -3.589875   -9.178681
C         4.389474   -3.431695   -6.750492
C         3.575898   -2.966242   -5.717065
N         1.307019   -2.612969   -3.872367
C         0.105841   -2.791693   -3.316498
C        -0.357672   -2.086260   -2.221665
O        -1.824449   -1.001418   -0.014450
C        -2.947801    0.361219    2.322526
C        -3.784130    0.775698    3.358756
C        -3.436408    1.804443    4.225902
C        -2.428327    2.968325    7.241319
C        -2.494776    1.627769    7.225937
S        -5.492115    0.847781    6.944092
C        -5.867520    2.507525    7.586322
C        -6.870489    3.304190    6.730215
H        -7.178114    4.215104    7.272918
N        -8.047079    2.517823    6.502482
C        -9.255072    3.060900    6.233467
C       -10.285687    2.072153    5.715991
O        -9.515617    4.244174    6.380905
C        -6.300517    3.791554    5.382951
N        -5.181750    4.564839    5.470290
C        -4.609620    5.179639    4.299294
O        -6.829062    3.558202    4.313352
H        -1.404478    4.300031    4.353807
H        -0.358525    2.494474    2.957635
H         0.082151    1.201134    1.205390
H         1.059290    0.297164   -0.413042
H         3.818486   -0.700277   -3.280237
H         7.043731    0.867318   -3.501405
H         7.102992    0.606878   -5.272344
H         7.771899   -0.631667   -4.157209
H         7.145576   -1.520711   -6.222250
H         7.699822   -3.879920   -5.763511
H         9.307557   -3.410965   -6.373846
H         7.921482   -6.135685   -6.655887
H         9.381657   -5.770532   -5.687799
H         8.167976   -6.104184   -9.069583
H         9.797376   -5.729048   -9.708656
H         8.129577   -3.795940   -9.907097
H         9.595216   -3.390179   -8.953054
H         4.012332   -4.189789   -7.438952
H         2.572646   -3.357259   -5.566170
H        -0.529766   -3.553114   -3.780507
H        -1.336606   -2.242753   -1.779080
H        -3.241660   -0.433925    1.642480
H        -4.753873    0.295581    3.505782
H        -4.129904    2.070281    5.027167
H        -2.630315    3.507016    8.170764
H        -2.736019    1.081826    8.137556
H        -2.288720    1.023200    6.343216
H        -4.936425    3.097340    7.677781
H        -6.291121    2.440549    8.601822
H        -7.837287    1.543748    6.283842
H       -10.170527    1.995155    4.623902
H       -11.290830    2.451640    5.938106
H       -10.155821    1.068668    6.146261
H        -4.749147    4.730350    6.368801
H        -5.325137    5.868422    3.820298
H        -4.333065    4.418950    3.551097
H        -3.712603    5.735932    4.600708
