-1 1
 OpenBabel05192410563D

 86 88  0  0  1  0  0  0  0  0999 V2000
    6.2350   -1.2466   -4.0739 O   0  0  0  0  0  0  0  0  0  0  0  0
    6.0221   -1.4083   -2.8416 C   0  0  0  0  0  0  0  0  0  0  0  0
    4.8413   -0.8233   -2.2830 N   0  0  0  0  0  0  0  0  0  0  0  0
    3.7216   -0.3313   -2.9071 C   0  0  0  0  0  0  0  0  0  0  0  0
    2.6571    0.1105   -2.0883 C   0  0  0  0  0  0  0  0  0  0  0  0
    1.4874    0.6082   -2.6548 C   0  0  0  0  0  0  0  0  0  0  0  0
    0.3845    1.0540   -1.8861 N   0  0  0  0  0  0  0  0  0  0  0  0
    0.2900    1.2263   -0.5341 C   0  0  0  0  0  0  0  0  0  0  0  0
   -0.9757    1.7011   -0.1616 N   0  0  0  0  0  0  0  0  0  0  0  0
   -1.4372    2.0057    1.1034 C   0  0  0  0  0  0  0  0  0  0  0  0
   -2.6911    2.4459    1.1208 N   0  0  0  0  0  0  0  0  0  0  0  0
   -3.2222    2.7685    2.3103 C   0  0  0  0  0  0  0  0  0  0  0  0
   -4.5117    3.2106    2.2427 N   0  0  0  0  0  0  0  0  0  0  0  0
   -5.3995    3.6302    3.2377 C   0  0  0  0  0  0  0  0  0  0  0  0
   -6.6862    4.0186    2.8039 C   0  0  0  0  0  0  0  0  0  0  0  0
   -6.8907    3.9252    1.4625 O   0  0  0  0  0  0  0  0  0  0  0  0
   -8.1328    4.2757    0.9259 C   0  0  0  0  0  0  0  0  0  0  0  0
   -7.6558    4.4516    3.7010 C   0  0  0  0  0  0  0  0  0  0  0  0
   -7.3874    4.5267    5.0868 C   0  0  0  0  0  0  0  0  0  0  0  0
   -8.3603    4.9611    5.9797 N   0  0  0  0  0  0  0  0  0  0  0  0
   -9.6202    5.5057    5.5270 C   0  0  0  0  0  0  0  0  0  0  0  0
  -10.7070    4.4551    5.2989 C   0  0  0  0  0  0  0  0  0  0  0  0
   -8.1458    4.9072    7.4092 C   0  0  0  0  0  0  0  0  0  0  0  0
   -7.4522    6.1430    7.9807 C   0  0  0  0  0  0  0  0  0  0  0  0
   -6.1051    4.1421    5.5087 C   0  0  0  0  0  0  0  0  0  0  0  0
   -5.1385    3.7015    4.6035 C   0  0  0  0  0  0  0  0  0  0  0  0
   -2.5986    2.6878    3.4871 N   0  0  0  0  0  0  0  0  0  0  0  0
   -1.3416    2.2418    3.4435 C   0  0  0  0  0  0  0  0  0  0  0  0
   -0.6810    1.8765    2.2849 C   0  0  0  0  0  0  0  0  0  0  0  0
    1.1688    1.0073    0.2700 O   0  0  0  0  0  0  0  0  0  0  0  0
    1.3453    0.6760   -4.0473 C   0  0  0  0  0  0  0  0  0  0  0  0
    2.3987    0.2413   -4.8482 C   0  0  0  0  0  0  0  0  0  0  0  0
    3.5791   -0.2522   -4.3095 C   0  0  0  0  0  0  0  0  0  0  0  0
    6.8311   -2.1301   -1.9642 C   0  0  0  0  0  3  0  0  0  0  0  0
    6.3882   -2.8068   -0.7377 C   0  0  0  0  0  0  0  0  0  0  0  0
    5.8122   -4.6162   -0.9852 S   0  0  0  0  0  0  0  0  0  0  0  0
    4.7082   -4.4313   -2.4157 C   0  0  0  0  0  0  0  0  0  0  0  0
    5.0479   -5.3295   -3.6128 C   0  0  2  0  0  0  0  0  0  0  0  0
    4.3341   -5.0643   -4.4142 H   0  0  0  0  0  0  0  0  0  0  0  0
    4.9039   -6.7317   -3.3075 N   0  0  0  0  0  0  0  0  0  0  0  0
    3.7136   -7.3515   -3.1654 C   0  0  0  0  0  0  0  0  0  0  0  0
    3.7980   -8.8313   -2.8289 C   0  0  0  0  0  0  0  0  0  0  0  0
    2.6389   -6.7810   -3.2631 O   0  0  0  0  0  0  0  0  0  0  0  0
    6.4744   -5.1654   -4.1749 C   0  0  0  0  0  0  0  0  0  0  0  0
    6.8185   -3.9501   -4.6202 N   0  0  0  0  0  0  0  0  0  0  0  0
    8.1693   -3.6866   -5.0503 C   0  0  0  0  0  0  0  0  0  0  0  0
    7.2233   -6.1365   -4.2399 O   0  0  0  0  0  0  0  0  0  0  0  0
    4.8023   -0.8234   -1.2736 H   0  0  0  0  0  0  0  0  0  0  0  0
    2.7478    0.0618   -1.0046 H   0  0  0  0  0  0  0  0  0  0  0  0
   -0.4229    1.2998   -2.4420 H   0  0  0  0  0  0  0  0  0  0  0  0
   -1.6834    1.8592   -0.8692 H   0  0  0  0  0  0  0  0  0  0  0  0
   -4.8879    3.2289    1.3033 H   0  0  0  0  0  0  0  0  0  0  0  0
   -8.0632    4.1248   -0.1585 H   0  0  0  0  0  0  0  0  0  0  0  0
   -8.3807    5.3335    1.1238 H   0  0  0  0  0  0  0  0  0  0  0  0
   -8.9445    3.6404    1.3224 H   0  0  0  0  0  0  0  0  0  0  0  0
   -8.6386    4.7164    3.3203 H   0  0  0  0  0  0  0  0  0  0  0  0
   -9.4617    6.0969    4.6105 H   0  0  0  0  0  0  0  0  0  0  0  0
   -9.9672    6.2328    6.2799 H   0  0  0  0  0  0  0  0  0  0  0  0
  -11.6457    4.9234    4.9644 H   0  0  0  0  0  0  0  0  0  0  0  0
  -10.9133    3.9022    6.2280 H   0  0  0  0  0  0  0  0  0  0  0  0
  -10.3953    3.7222    4.5401 H   0  0  0  0  0  0  0  0  0  0  0  0
   -7.5761    3.9990    7.6610 H   0  0  0  0  0  0  0  0  0  0  0  0
   -9.1272    4.7778    7.8953 H   0  0  0  0  0  0  0  0  0  0  0  0
   -6.4625    6.2852    7.5227 H   0  0  0  0  0  0  0  0  0  0  0  0
   -7.3199    6.0525    9.0698 H   0  0  0  0  0  0  0  0  0  0  0  0
   -8.0453    7.0494    7.7833 H   0  0  0  0  0  0  0  0  0  0  0  0
   -5.8248    4.1916    6.5599 H   0  0  0  0  0  0  0  0  0  0  0  0
   -4.1503    3.4092    4.9518 H   0  0  0  0  0  0  0  0  0  0  0  0
   -0.8240    2.1710    4.4064 H   0  0  0  0  0  0  0  0  0  0  0  0
    0.3420    1.5137    2.2659 H   0  0  0  0  0  0  0  0  0  0  0  0
    0.4263    1.0662   -4.4945 H   0  0  0  0  0  0  0  0  0  0  0  0
    2.2972    0.2949   -5.9356 H   0  0  0  0  0  0  0  0  0  0  0  0
    4.4165   -0.5696   -4.9262 H   0  0  0  0  0  0  0  0  0  0  0  0
    7.7562   -2.5017   -2.4114 H   0  0  0  0  0  0  0  0  0  0  0  0
    5.5577   -2.3146   -0.2091 H   0  0  0  0  0  0  0  0  0  0  0  0
    7.1924   -2.9553   -0.0006 H   0  0  0  0  0  0  0  0  0  0  0  0
    4.7483   -3.3783   -2.7252 H   0  0  0  0  0  0  0  0  0  0  0  0
    3.6729   -4.6528   -2.1229 H   0  0  0  0  0  0  0  0  0  0  0  0
    5.7848   -7.2397   -3.3488 H   0  0  0  0  0  0  0  0  0  0  0  0
    3.5996   -8.9546   -1.7536 H   0  0  0  0  0  0  0  0  0  0  0  0
    4.7778   -9.2739   -3.0566 H   0  0  0  0  0  0  0  0  0  0  0  0
    3.0107   -9.3638   -3.3784 H   0  0  0  0  0  0  0  0  0  0  0  0
    6.2804   -3.0954   -4.4237 H   0  0  0  0  0  0  0  0  0  0  0  0
    8.3881   -4.1576   -6.0230 H   0  0  0  0  0  0  0  0  0  0  0  0
    8.8994   -4.0723   -4.3208 H   0  0  0  0  0  0  0  0  0  0  0  0
    8.2741   -2.5972   -5.1307 H   0  0  0  0  0  0  0  0  0  0  0  0
  1  2  2  0  0  0  0
  2  3  1  0  0  0  0
  2 34  1  0  0  0  0
  3 48  1  0  0  0  0
  4  3  1  0  0  0  0
  4  5  1  0  0  0  0
  5 49  1  0  0  0  0
  6  5  2  0  0  0  0
  6  7  1  0  0  0  0
  7  8  1  0  0  0  0
  8  9  1  0  0  0  0
  8 30  2  0  0  0  0
  9 10  1  0  0  0  0
 10 11  1  0  0  0  0
 10 29  2  0  0  0  0
 11 12  2  0  0  0  0
 12 27  1  0  0  0  0
 13 12  1  0  0  0  0
 13 14  1  0  0  0  0
 14 26  1  0  0  0  0
 15 14  2  0  0  0  0
 15 18  1  0  0  0  0
 16 15  1  0  0  0  0
 17 54  1  0  0  0  0
 17 55  1  0  0  0  0
 17 16  1  0  0  0  0
 18 19  2  0  0  0  0
 19 25  1  0  0  0  0
 19 20  1  0  0  0  0
 20 23  1  0  0  0  0
 21 20  1  0  0  0  0
 21 58  1  0  0  0  0
 22 21  1  0  0  0  0
 22 60  1  0  0  0  0
 23 62  1  0  0  0  0
 23 63  1  0  0  0  0
 23 24  1  0  0  0  0
 24 65  1  0  0  0  0
 25 67  1  0  0  0  0
 26 68  1  0  0  0  0
 26 25  2  0  0  0  0
 28 27  2  0  0  0  0
 28 69  1  0  0  0  0
 29 28  1  0  0  0  0
 31  6  1  0  0  0  0
 32 33  1  0  0  0  0
 32 31  2  0  0  0  0
 33  4  2  0  0  0  0
 34 35  1  0  0  0  0
 35 75  1  0  0  0  0
 35 76  1  0  0  0  0
 36 35  1  0  0  0  0
 37 78  1  0  0  0  0
 37 36  1  0  0  0  0
 38 39  1  6  0  0  0
 38 40  1  0  0  0  0
 38 37  1  0  0  0  0
 40 41  1  0  0  0  0
 41 42  1  0  0  0  0
 42 80  1  0  0  0  0
 43 41  2  0  0  0  0
 44 38  1  0  0  0  0
 45 83  1  0  0  0  0
 45 44  1  0  0  0  0
 46 45  1  0  0  0  0
 46 85  1  0  0  0  0
 47 44  2  0  0  0  0
 50  7  1  0  0  0  0
 51  9  1  0  0  0  0
 52 13  1  0  0  0  0
 53 17  1  0  0  0  0
 56 18  1  0  0  0  0
 57 21  1  0  0  0  0
 59 22  1  0  0  0  0
 61 22  1  0  0  0  0
 64 24  1  0  0  0  0
 66 24  1  0  0  0  0
 70 29  1  0  0  0  0
 71 31  1  0  0  0  0
 72 32  1  0  0  0  0
 73 33  1  0  0  0  0
 74 34  1  0  0  0  0
 77 37  1  0  0  0  0
 79 40  1  0  0  0  0
 81 42  1  0  0  0  0
 82 42  1  0  0  0  0
 84 46  1  0  0  0  0
 86 46  1  0  0  0  0
M  END
