-1 1
 OpenBabel05232414493D

 86 87  0  0  1  0  0  0  0  0999 V2000
   10.9165    9.7736    2.1262 O   0  0  0  0  0  0  0  0  0  0  0  0
   10.1656    8.8304    2.3745 C   0  0  0  0  0  0  0  0  0  0  0  0
    8.8600    9.2235    2.7882 N   0  0  0  0  0  0  0  0  0  0  0  0
    7.5845    8.6964    2.7169 C   0  0  0  0  0  0  0  0  0  0  0  0
    6.5565    9.4095    3.3716 C   0  0  0  0  0  0  0  0  0  0  0  0
    5.2405    8.9573    3.3187 C   0  0  0  0  0  0  0  0  0  0  0  0
    4.1646    9.6261    3.9496 N   0  0  0  0  0  0  0  0  0  0  0  0
    4.1746   10.7878    4.6704 C   0  0  0  0  0  0  0  0  0  0  0  0
    2.8933   11.1233    5.1261 N   0  0  0  0  0  0  0  0  0  0  0  0
    2.5115   12.2153    5.8815 C   0  0  0  0  0  0  0  0  0  0  0  0
    1.2098   12.2490    6.1455 N   0  0  0  0  0  0  0  0  0  0  0  0
    0.7479   13.2763    6.8758 C   0  0  0  0  0  0  0  0  0  0  0  0
   -0.5968   13.2390    7.1015 N   0  0  0  0  0  0  0  0  0  0  0  0
   -1.4427   14.1053    7.8013 C   0  0  0  0  0  0  0  0  0  0  0  0
   -2.8106   13.7552    7.8286 C   0  0  0  0  0  0  0  0  0  0  0  0
   -3.1216   12.6077    7.1683 O   0  0  0  0  0  0  0  0  0  0  0  0
   -4.4481   12.1679    7.1322 C   0  0  0  0  0  0  0  0  0  0  0  0
   -3.7474   14.5369    8.4946 C   0  0  0  0  0  0  0  0  0  0  0  0
   -3.3659   15.7205    9.1668 C   0  0  0  0  0  0  0  0  0  0  0  0
   -4.3067   16.4991    9.8301 N   0  0  0  0  0  0  0  0  0  0  0  0
   -5.7237   16.2332    9.7268 C   0  0  0  0  0  0  0  0  0  0  0  0
   -6.2467   15.2351   10.7596 C   0  0  0  0  0  0  0  0  0  0  0  0
   -3.9095   17.6338   10.6347 C   0  0  0  0  0  0  0  0  0  0  0  0
   -3.7743   18.9367    9.8479 C   0  0  0  0  0  0  0  0  0  0  0  0
   -2.0048   16.0620    9.1322 C   0  0  0  0  0  0  0  0  0  0  0  0
   -1.0683   15.2690    8.4674 C   0  0  0  0  0  0  0  0  0  0  0  0
    1.4863   14.2745    7.3650 N   0  0  0  0  0  0  0  0  0  0  0  0
    2.7897   14.2177    7.0865 C   0  0  0  0  0  0  0  0  0  0  0  0
    3.3884   13.2150    6.3452 C   0  0  0  0  0  0  0  0  0  0  0  0
    5.1513   11.4651    4.9035 O   0  0  0  0  0  0  0  0  0  0  0  0
    4.9236    7.7791    2.6276 C   0  0  0  0  0  0  0  0  0  0  0  0
    5.9416    7.0825    1.9856 C   0  0  0  0  0  0  0  0  0  0  0  0
    7.2559    7.5313    2.0096 C   0  0  0  0  0  0  0  0  0  0  0  0
   10.6317    7.4687    2.3859 C   0  0  0  0  0  3  0  0  0  0  0  0
   10.0558    6.2938    2.8837 C   0  0  0  0  0  3  0  0  0  0  0  0
    9.3495    4.7740    1.2996 S   0  0  0  0  0  1  0  0  0  0  0  0
    9.4886    5.8127   -0.1702 C   0  0  0  0  0  0  0  0  0  0  0  0
   10.4292    5.2611   -1.2464 C   0  0  2  0  0  0  0  0  0  0  0  0
   10.4265    5.9413   -2.1145 H   0  0  0  0  0  0  0  0  0  0  0  0
    9.9663    3.9866   -1.7288 N   0  0  0  0  0  0  0  0  0  0  0  0
   10.1122    3.6001   -3.0231 C   0  0  0  0  0  0  0  0  0  0  0  0
    9.9298    2.1104   -3.2525 C   0  0  0  0  0  0  0  0  0  0  0  0
   10.3679    4.3671   -3.9332 O   0  0  0  0  0  0  0  0  0  0  0  0
   11.9044    5.1287   -0.8106 C   0  0  0  0  0  0  0  0  0  0  0  0
   12.3942    6.1865   -0.1180 N   0  0  0  0  0  0  0  0  0  0  0  0
   13.7212    6.1712    0.4405 C   0  0  0  0  0  0  0  0  0  0  0  0
   12.5812    4.1699   -1.1369 O   0  0  0  0  0  0  0  0  0  0  0  0
    8.8901   10.2186    2.9799 H   0  0  0  0  0  0  0  0  0  0  0  0
    6.7917   10.3158    3.9258 H   0  0  0  0  0  0  0  0  0  0  0  0
    3.2751    9.1607    3.8330 H   0  0  0  0  0  0  0  0  0  0  0  0
    2.1051   10.5277    4.9008 H   0  0  0  0  0  0  0  0  0  0  0  0
   -1.0586   12.4407    6.6846 H   0  0  0  0  0  0  0  0  0  0  0  0
   -4.4582   11.2402    6.5468 H   0  0  0  0  0  0  0  0  0  0  0  0
   -5.1104   12.9048    6.6447 H   0  0  0  0  0  0  0  0  0  0  0  0
   -4.8369   11.9551    8.1437 H   0  0  0  0  0  0  0  0  0  0  0  0
   -4.7845   14.2122    8.5072 H   0  0  0  0  0  0  0  0  0  0  0  0
   -5.9638   15.8898    8.7075 H   0  0  0  0  0  0  0  0  0  0  0  0
   -6.2590   17.1906    9.8398 H   0  0  0  0  0  0  0  0  0  0  0  0
   -7.3300   15.0763   10.6427 H   0  0  0  0  0  0  0  0  0  0  0  0
   -6.0635   15.6017   11.7811 H   0  0  0  0  0  0  0  0  0  0  0  0
   -5.7411   14.2630   10.6612 H   0  0  0  0  0  0  0  0  0  0  0  0
   -2.9668   17.4024   11.1551 H   0  0  0  0  0  0  0  0  0  0  0  0
   -4.6583   17.7618   11.4341 H   0  0  0  0  0  0  0  0  0  0  0  0
   -3.0202   18.8394    9.0533 H   0  0  0  0  0  0  0  0  0  0  0  0
   -3.4772   19.7664   10.5076 H   0  0  0  0  0  0  0  0  0  0  0  0
   -4.7297   19.2054    9.3712 H   0  0  0  0  0  0  0  0  0  0  0  0
   -1.6445   16.9696    9.6144 H   0  0  0  0  0  0  0  0  0  0  0  0
   -0.0186   15.5540    8.4505 H   0  0  0  0  0  0  0  0  0  0  0  0
    3.4016   15.0343    7.4852 H   0  0  0  0  0  0  0  0  0  0  0  0
    4.4512   13.1836    6.1265 H   0  0  0  0  0  0  0  0  0  0  0  0
    3.8921    7.4164    2.5927 H   0  0  0  0  0  0  0  0  0  0  0  0
    5.7163    6.1619    1.4424 H   0  0  0  0  0  0  0  0  0  0  0  0
    8.0189    6.9598    1.4913 H   0  0  0  0  0  0  0  0  0  0  0  0
   11.7014    7.4498    2.1615 H   0  0  0  0  0  0  0  0  0  0  0  0
    9.0999    6.3455    3.4097 H   0  0  0  0  0  0  0  0  0  0  0  0
   10.7396    5.5496    3.2941 H   0  0  0  0  0  0  0  0  0  0  0  0
    9.8308    6.8160    0.1674 H   0  0  0  0  0  0  0  0  0  0  0  0
    8.5019    5.9654   -0.6342 H   0  0  0  0  0  0  0  0  0  0  0  0
    9.8876    3.2731   -1.0116 H   0  0  0  0  0  0  0  0  0  0  0  0
    9.6936    1.9357   -4.3090 H   0  0  0  0  0  0  0  0  0  0  0  0
    9.1412    1.6856   -2.6143 H   0  0  0  0  0  0  0  0  0  0  0  0
   10.8777    1.6056   -3.0101 H   0  0  0  0  0  0  0  0  0  0  0  0
   11.7289    6.8294    0.3013 H   0  0  0  0  0  0  0  0  0  0  0  0
   14.3583    5.5353   -0.1874 H   0  0  0  0  0  0  0  0  0  0  0  0
   13.7345    5.7627    1.4663 H   0  0  0  0  0  0  0  0  0  0  0  0
   14.1323    7.1908    0.4666 H   0  0  0  0  0  0  0  0  0  0  0  0
  1  2  2  0  0  0  0
  2 34  1  0  0  0  0
  2  3  1  0  0  0  0
  3 48  1  0  0  0  0
  4  3  1  0  0  0  0
  4  5  1  0  0  0  0
  5 49  1  0  0  0  0
  6  5  2  0  0  0  0
  6  7  1  0  0  0  0
  7  8  1  0  0  0  0
  8 30  2  0  0  0  0
  8  9  1  0  0  0  0
  9 10  1  0  0  0  0
 10 11  1  0  0  0  0
 10 29  2  0  0  0  0
 11 12  2  0  0  0  0
 12 13  1  0  0  0  0
 12 27  1  0  0  0  0
 13 14  1  0  0  0  0
 14 15  2  0  0  0  0
 14 26  1  0  0  0  0
 15 18  1  0  0  0  0
 16 15  1  0  0  0  0
 17 16  1  0  0  0  0
 17 55  1  0  0  0  0
 18 56  1  0  0  0  0
 18 19  2  0  0  0  0
 19 20  1  0  0  0  0
 20 23  1  0  0  0  0
 21 20  1  0  0  0  0
 21 58  1  0  0  0  0
 21 22  1  0  0  0  0
 22 60  1  0  0  0  0
 23 62  1  0  0  0  0
 23 63  1  0  0  0  0
 24 65  1  0  0  0  0
 24 23  1  0  0  0  0
 25 19  1  0  0  0  0
 25 67  1  0  0  0  0
 26 25  2  0  0  0  0
 28 27  2  0  0  0  0
 28 69  1  0  0  0  0
 29 28  1  0  0  0  0
 31  6  1  0  0  0  0
 32 33  1  0  0  0  0
 32 31  2  0  0  0  0
 33  4  2  0  0  0  0
 34 35  1  0  0  0  0
 35 76  1  0  0  0  0
 35 75  1  0  0  0  0
 37 77  1  0  0  0  0
 37 36  1  0  0  0  0
 38 39  1  6  0  0  0
 38 44  1  0  0  0  0
 38 37  1  0  0  0  0
 40 38  1  0  0  0  0
 40 79  1  0  0  0  0
 41 40  1  0  0  0  0
 42 41  1  0  0  0  0
 42 82  1  0  0  0  0
 42 81  1  0  0  0  0
 43 41  2  0  0  0  0
 44 45  1  0  0  0  0
 45 83  1  0  0  0  0
 45 46  1  0  0  0  0
 46 86  1  0  0  0  0
 46 85  1  0  0  0  0
 47 44  2  0  0  0  0
 50  7  1  0  0  0  0
 51  9  1  0  0  0  0
 52 13  1  0  0  0  0
 53 17  1  0  0  0  0
 54 17  1  0  0  0  0
 57 21  1  0  0  0  0
 59 22  1  0  0  0  0
 61 22  1  0  0  0  0
 64 24  1  0  0  0  0
 66 24  1  0  0  0  0
 68 26  1  0  0  0  0
 70 29  1  0  0  0  0
 71 31  1  0  0  0  0
 72 32  1  0  0  0  0
 73 33  1  0  0  0  0
 74 34  1  0  0  0  0
 78 37  1  0  0  0  0
 80 42  1  0  0  0  0
 84 46  1  0  0  0  0
M  END
