86
-1 1
O        10.916523    9.773614    2.126217
C        10.165599    8.830419    2.374520
N         8.859995    9.223466    2.788233
C         7.584468    8.696402    2.716937
C         6.556545    9.409502    3.371629
C         5.240538    8.957302    3.318729
N         4.164608    9.626108    3.949575
C         4.174583   10.787790    4.670380
N         2.893320   11.123298    5.126087
C         2.511527   12.215275    5.881529
N         1.209819   12.248951    6.145457
C         0.747873   13.276269    6.875810
N        -0.596769   13.239017    7.101494
C        -1.442729   14.105299    7.801256
C        -2.810637   13.755225    7.828565
O        -3.121621   12.607660    7.168309
C        -4.448090   12.167894    7.132183
C        -3.747414   14.536875    8.494615
C        -3.365881   15.720475    9.166822
N        -4.306674   16.499084    9.830061
C        -5.723724   16.233232    9.726751
C        -6.246723   15.235054   10.759568
C        -3.909465   17.633787   10.634673
C        -3.774287   18.936718    9.847894
C        -2.004785   16.061966    9.132170
C        -1.068283   15.269041    8.467361
N         1.486340   14.274529    7.365045
C         2.789685   14.217742    7.086499
C         3.388413   13.215028    6.345162
O         5.151343   11.465100    4.903509
C         4.923582    7.779101    2.627571
C         5.941618    7.082539    1.985618
C         7.255916    7.531341    2.009643
C        10.631696    7.468682    2.385876
C        10.055779    6.293823    2.883736
S         9.349475    4.774047    1.299600
C         9.488557    5.812711   -0.170240
C        10.429237    5.261104   -1.246412
H        10.426503    5.941298   -2.114491
N         9.966307    3.986586   -1.728763
C        10.112225    3.600127   -3.023051
C         9.929827    2.110405   -3.252466
O        10.367926    4.367137   -3.933152
C        11.904438    5.128720   -0.810558
N        12.394250    6.186504   -0.117971
C        13.721193    6.171230    0.440507
O        12.581161    4.169930   -1.136909
H         8.890144   10.218622    2.979949
H         6.791680   10.315820    3.925832
H         3.275075    9.160704    3.832992
H         2.105109   10.527676    4.900792
H        -1.058626   12.440666    6.684568
H        -4.458191   11.240207    6.546757
H        -5.110397   12.904826    6.644654
H        -4.836868   11.955089    8.143705
H        -4.784453   14.212227    8.507193
H        -5.963812   15.889790    8.707467
H        -6.258987   17.190553    9.839833
H        -7.329966   15.076282   10.642725
H        -6.063516   15.601720   11.781149
H        -5.741067   14.263013   10.661182
H        -2.966846   17.402403   11.155078
H        -4.658251   17.761850   11.434073
H        -3.020193   18.839447    9.053284
H        -3.477152   19.766413   10.507591
H        -4.729696   19.205385    9.371196
H        -1.644540   16.969642    9.614373
H        -0.018597   15.554004    8.450469
H         3.401563   15.034306    7.485157
H         4.451225   13.183620    6.126500
H         3.892142    7.416364    2.592727
H         5.716284    6.161912    1.442374
H         8.018905    6.959845    1.491330
H        11.701354    7.449835    2.161456
H         9.099904    6.345533    3.409701
H        10.739580    5.549564    3.294059
H         9.830757    6.816037    0.167435
H         8.501939    5.965448   -0.634234
H         9.887630    3.273098   -1.011602
H         9.693582    1.935732   -4.308961
H         9.141163    1.685636   -2.614349
H        10.877691    1.605635   -3.010123
H        11.728862    6.829438    0.301276
H        14.358321    5.535330   -0.187440
H        13.734534    5.762682    1.466327
H        14.132336    7.190839    0.466608
