-1 1
 OpenBabel05232414493D

 98101  0  0  1  0  0  0  0  0999 V2000
    6.1388   17.0680   -6.6864 O   0  0  0  0  0  0  0  0  0  0  0  0
    6.5580   15.9985   -7.1418 C   0  0  0  0  0  0  0  0  0  0  0  0
    5.7630   14.8600   -6.8596 N   0  0  0  0  0  0  0  0  0  0  0  0
    6.0800   13.5088   -6.7043 C   0  0  0  0  0  0  0  0  0  0  0  0
    5.1045   12.5707   -7.0481 C   0  0  0  0  0  0  0  0  0  0  0  0
    5.3358   11.1987   -6.9310 C   0  0  0  0  0  0  0  0  0  0  0  0
    4.3189   10.3574   -7.4315 N   0  0  0  0  0  0  0  0  0  0  0  0
    3.9923    9.1049   -7.0425 C   0  0  0  0  0  0  0  0  0  0  0  0
    2.7056    8.6226   -7.6874 C   0  0  0  0  0  0  0  0  0  0  0  0
    2.5558    8.5769   -9.1781 C   0  0  0  0  0  0  0  0  0  0  0  0
    2.6759    7.2974   -8.4074 C   0  0  0  0  0  0  0  0  0  0  0  0
    1.4746    8.9973   -6.8896 C   0  0  0  0  0  0  0  0  0  0  0  0
    1.6740    8.9217   -5.5281 N   0  0  0  0  0  0  0  0  0  0  0  0
    0.8372    9.5282   -4.5795 C   0  0  0  0  0  0  0  0  0  0  0  0
    0.4994   10.7887   -4.7988 N   0  0  0  0  0  0  0  0  0  0  0  0
   -0.2767   11.3860   -3.8912 C   0  0  0  0  0  0  0  0  0  0  0  0
   -0.6029   12.6945   -4.0390 N   0  0  0  0  0  0  0  0  0  0  0  0
   -0.0562   13.6898   -4.8669 C   0  0  0  0  0  0  0  0  0  0  0  0
   -0.4296   15.0138   -4.5657 C   0  0  0  0  0  0  0  0  0  0  0  0
   -1.3045   15.1440   -3.5278 O   0  0  0  0  0  0  0  0  0  0  0  0
   -1.7044   16.4200   -3.1222 C   0  0  0  0  0  0  0  0  0  0  0  0
    0.0935   16.0942   -5.2697 C   0  0  0  0  0  0  0  0  0  0  0  0
    1.0129   15.9023   -6.3226 C   0  0  0  0  0  0  0  0  0  0  0  0
    1.5573   16.9816   -7.0275 N   0  0  0  0  0  0  0  0  0  0  0  0
    2.9728   16.8669   -7.3968 C   0  0  0  0  0  0  0  0  0  0  0  0
    3.4329   17.9945   -8.3151 C   0  0  0  0  0  0  0  0  0  0  0  0
    3.1258   19.3130   -7.7899 N   0  0  0  0  0  0  0  0  0  0  0  0
    1.7048   19.3953   -7.5482 C   0  0  0  0  0  0  0  0  0  0  0  0
    1.1669   18.3147   -6.6030 C   0  0  0  0  0  0  0  0  0  0  0  0
    3.9571   19.7268   -6.6786 C   0  0  0  0  0  0  0  0  0  0  0  0
    1.3592   14.5757   -6.6307 C   0  0  0  0  0  0  0  0  0  0  0  0
    0.8337   13.4970   -5.9245 C   0  0  0  0  0  0  0  0  0  0  0  0
   -0.7771   10.7953   -2.7850 N   0  0  0  0  0  0  0  0  0  0  0  0
   -0.4181    9.5390   -2.5837 C   0  0  0  0  0  0  0  0  0  0  0  0
    0.4155    8.8287   -3.4467 C   0  0  0  0  0  0  0  0  0  0  0  0
    0.4201    9.2933   -7.3985 O   0  0  0  0  0  0  0  0  0  0  0  0
    4.5776    8.4426   -6.1989 O   0  0  0  0  0  0  0  0  0  0  0  0
    6.5465   10.7355   -6.4106 C   0  0  0  0  0  0  0  0  0  0  0  0
    7.5124   11.6773   -6.0475 C   0  0  0  0  0  0  0  0  0  0  0  0
    7.3018   13.0451   -6.1907 C   0  0  0  0  0  0  0  0  0  0  0  0
    7.7374   15.8772   -7.9504 C   0  0  0  0  0  3  0  0  0  0  0  0
    8.1271   14.8120   -8.7669 C   0  0  0  0  0  3  0  0  0  0  0  0
    7.3671   14.9193  -10.9396 S   0  0  0  0  0  1  0  0  0  0  0  0
    5.7424   15.6096  -10.5622 C   0  0  0  0  0  0  0  0  0  0  0  0
    4.6532   14.5875  -10.1577 C   0  0  2  0  0  0  0  0  0  0  0  0
    4.6992   14.4536   -9.0639 H   0  0  0  0  0  0  0  0  0  0  0  0
    4.9349   13.2985  -10.7766 N   0  0  0  0  0  0  0  0  0  0  0  0
    4.4706   12.1094  -10.3927 C   0  0  0  0  0  0  0  0  0  0  0  0
    5.2163   10.9043  -10.9173 C   0  0  0  0  0  0  0  0  0  0  0  0
    3.4926   11.9484   -9.6428 O   0  0  0  0  0  0  0  0  0  0  0  0
    3.2460   15.1448  -10.4770 C   0  0  0  0  0  0  0  0  0  0  0  0
    2.2213   14.4044   -9.9982 N   0  0  0  0  0  0  0  0  0  0  0  0
    0.8614   14.8770  -10.0856 C   0  0  0  0  0  0  0  0  0  0  0  0
    3.0738   16.2125  -11.0407 O   0  0  0  0  0  0  0  0  0  0  0  0
    4.8536   15.1294   -6.5018 H   0  0  0  0  0  0  0  0  0  0  0  0
    4.1536   12.9149   -7.4558 H   0  0  0  0  0  0  0  0  0  0  0  0
    3.7469   10.7888   -8.1672 H   0  0  0  0  0  0  0  0  0  0  0  0
    3.4087    8.9078   -9.7729 H   0  0  0  0  0  0  0  0  0  0  0  0
    1.5753    8.8652   -9.5617 H   0  0  0  0  0  0  0  0  0  0  0  0
    3.6164    6.7420   -8.4451 H   0  0  0  0  0  0  0  0  0  0  0  0
    1.7804    6.6834   -8.2836 H   0  0  0  0  0  0  0  0  0  0  0  0
    2.5324    8.4812   -5.2053 H   0  0  0  0  0  0  0  0  0  0  0  0
   -1.1849   13.0527   -3.2911 H   0  0  0  0  0  0  0  0  0  0  0  0
   -2.3953   16.2826   -2.2807 H   0  0  0  0  0  0  0  0  0  0  0  0
   -2.2290   16.9613   -3.9292 H   0  0  0  0  0  0  0  0  0  0  0  0
   -0.8484   17.0309   -2.7856 H   0  0  0  0  0  0  0  0  0  0  0  0
   -0.1973   17.0982   -4.9761 H   0  0  0  0  0  0  0  0  0  0  0  0
    3.1371   15.9199   -7.9220 H   0  0  0  0  0  0  0  0  0  0  0  0
    3.6095   16.8621   -6.4897 H   0  0  0  0  0  0  0  0  0  0  0  0
    2.9576   17.8828   -9.3022 H   0  0  0  0  0  0  0  0  0  0  0  0
    4.5191   17.8932   -8.4484 H   0  0  0  0  0  0  0  0  0  0  0  0
    1.1843   19.2985   -8.5171 H   0  0  0  0  0  0  0  0  0  0  0  0
    1.4500   20.3852   -7.1338 H   0  0  0  0  0  0  0  0  0  0  0  0
    0.0678   18.3838   -6.5961 H   0  0  0  0  0  0  0  0  0  0  0  0
    1.5104   18.5201   -5.5652 H   0  0  0  0  0  0  0  0  0  0  0  0
    5.0133   19.5613   -6.9323 H   0  0  0  0  0  0  0  0  0  0  0  0
    3.7800   19.1766   -5.7307 H   0  0  0  0  0  0  0  0  0  0  0  0
    3.8002   20.8001   -6.4779 H   0  0  0  0  0  0  0  0  0  0  0  0
    2.0332   14.3658   -7.4593 H   0  0  0  0  0  0  0  0  0  0  0  0
    1.1196   12.4821   -6.1908 H   0  0  0  0  0  0  0  0  0  0  0  0
   -0.8197    9.0557   -1.6852 H   0  0  0  0  0  0  0  0  0  0  0  0
    0.6879    7.7882   -3.2755 H   0  0  0  0  0  0  0  0  0  0  0  0
    6.7201    9.6670   -6.2968 H   0  0  0  0  0  0  0  0  0  0  0  0
    8.4646   11.3278   -5.6404 H   0  0  0  0  0  0  0  0  0  0  0  0
    8.0758   13.7661   -5.9251 H   0  0  0  0  0  0  0  0  0  0  0  0
    8.2839   16.8205   -8.0267 H   0  0  0  0  0  0  0  0  0  0  0  0
    7.7227   13.8136   -8.6004 H   0  0  0  0  0  0  0  0  0  0  0  0
    9.1619   14.8006   -9.1156 H   0  0  0  0  0  0  0  0  0  0  0  0
    5.3826   16.1891  -11.4214 H   0  0  0  0  0  0  0  0  0  0  0  0
    5.8655   16.3211   -9.7268 H   0  0  0  0  0  0  0  0  0  0  0  0
    5.8618   13.3294  -11.2330 H   0  0  0  0  0  0  0  0  0  0  0  0
    4.5159   10.2574  -11.4644 H   0  0  0  0  0  0  0  0  0  0  0  0
    5.5942   10.3408  -10.0509 H   0  0  0  0  0  0  0  0  0  0  0  0
    6.0594   11.1677  -11.5685 H   0  0  0  0  0  0  0  0  0  0  0  0
    2.4340   13.4592   -9.6715 H   0  0  0  0  0  0  0  0  0  0  0  0
    0.5769   15.1027  -11.1258 H   0  0  0  0  0  0  0  0  0  0  0  0
    0.7339   15.7958   -9.4893 H   0  0  0  0  0  0  0  0  0  0  0  0
    0.1906   14.1070   -9.6839 H   0  0  0  0  0  0  0  0  0  0  0  0
  2  3  1  0  0  0  0
  2  1  2  0  0  0  0
  3  4  1  0  0  0  0
  3 55  1  0  0  0  0
  4 40  1  0  0  0  0
  5  6  1  0  0  0  0
  5  4  2  0  0  0  0
  6 38  2  0  0  0  0
  7  8  1  0  0  0  0
  7  6  1  0  0  0  0
  8 37  2  0  0  0  0
  9  8  1  0  0  0  0
  9 12  1  0  0  0  0
 10 11  1  0  0  0  0
 10  9  1  0  0  0  0
 11 61  1  0  0  0  0
 11  9  1  0  0  0  0
 12 13  1  0  0  0  0
 13 62  1  0  0  0  0
 13 14  1  0  0  0  0
 14 35  2  0  0  0  0
 15 14  1  0  0  0  0
 15 16  2  0  0  0  0
 16 33  1  0  0  0  0
 17 16  1  0  0  0  0
 17 63  1  0  0  0  0
 18 19  1  0  0  0  0
 18 17  1  0  0  0  0
 19 20  1  0  0  0  0
 20 21  1  0  0  0  0
 21 66  1  0  0  0  0
 21 64  1  0  0  0  0
 22 67  1  0  0  0  0
 22 19  2  0  0  0  0
 23 22  1  0  0  0  0
 24 29  1  0  0  0  0
 24 23  1  0  0  0  0
 25 24  1  0  0  0  0
 25 69  1  0  0  0  0
 26 27  1  0  0  0  0
 26 25  1  0  0  0  0
 27 28  1  0  0  0  0
 27 30  1  0  0  0  0
 28 73  1  0  0  0  0
 28 29  1  0  0  0  0
 29 74  1  0  0  0  0
 29 75  1  0  0  0  0
 30 78  1  0  0  0  0
 30 77  1  0  0  0  0
 31 23  2  0  0  0  0
 31 32  1  0  0  0  0
 32 18  2  0  0  0  0
 33 34  2  0  0  0  0
 34 81  1  0  0  0  0
 35 82  1  0  0  0  0
 35 34  1  0  0  0  0
 36 12  2  0  0  0  0
 38 83  1  0  0  0  0
 38 39  1  0  0  0  0
 39 84  1  0  0  0  0
 40 39  2  0  0  0  0
 40 85  1  0  0  0  0
 41  2  1  0  0  0  0
 42 87  1  0  0  0  0
 42 41  1  0  0  0  0
 43 44  1  0  0  0  0
 44 45  1  0  0  0  0
 44 90  1  0  0  0  0
 45 46  1  1  0  0  0
 47 48  1  0  0  0  0
 47 45  1  0  0  0  0
 48 50  2  0  0  0  0
 49 48  1  0  0  0  0
 49 93  1  0  0  0  0
 51 45  1  0  0  0  0
 51 52  1  0  0  0  0
 52 95  1  0  0  0  0
 53 52  1  0  0  0  0
 53 98  1  0  0  0  0
 53 97  1  0  0  0  0
 54 51  2  0  0  0  0
 56  5  1  0  0  0  0
 57  7  1  0  0  0  0
 58 10  1  0  0  0  0
 59 10  1  0  0  0  0
 60 11  1  0  0  0  0
 65 21  1  0  0  0  0
 68 25  1  0  0  0  0
 70 26  1  0  0  0  0
 71 26  1  0  0  0  0
 72 28  1  0  0  0  0
 76 30  1  0  0  0  0
 79 31  1  0  0  0  0
 80 32  1  0  0  0  0
 86 41  1  0  0  0  0
 88 42  1  0  0  0  0
 89 44  1  0  0  0  0
 91 47  1  0  0  0  0
 92 49  1  0  0  0  0
 94 49  1  0  0  0  0
 96 53  1  0  0  0  0
M  END
