98
-1 1
O         3.192022    3.551630    0.526731
C         3.522449    2.544911   -0.131310
N         2.693428    1.382704    0.108933
C         3.011442    0.041591    0.241505
C         1.982945   -0.892012    0.056725
C         2.222002   -2.264230    0.099187
N         1.143846   -3.088300   -0.300040
C         0.830890   -4.335713    0.111135
C        -0.484638   -4.817051   -0.476282
C        -0.691420   -4.864082   -1.960818
C        -0.540672   -6.142566   -1.193617
C        -1.685114   -4.444251    0.366489
N        -1.434453   -4.507805    1.719189
C        -2.250027   -3.905968    2.690695
N        -2.594327   -2.645452    2.482996
C        -3.352700   -2.051760    3.407766
N        -3.680407   -0.742102    3.270988
C        -3.130264    0.256473    2.448476
C        -3.473185    1.583109    2.773146
O        -4.334163    1.715172    3.822533
C        -4.695522    2.992907    4.257748
C        -2.933702    2.663650    2.081210
C        -2.026021    2.469680    1.018324
N        -1.454137    3.546941    0.333398
C        -0.054099    3.380109   -0.072442
C         0.450600    4.521024   -0.948378
N         0.217927    5.827863   -0.361758
C        -1.194172    5.972039   -0.098957
C        -1.777811    4.881607    0.808372
C         1.082592    6.145315    0.758021
C        -1.716283    1.140358    0.683329
C        -2.258692    0.062124    1.376329
N        -3.832443   -2.648174    4.519996
C        -3.467575   -3.904546    4.709533
C        -2.648110   -4.610097    3.828813
O        -2.760795   -4.159232   -0.104261
O         1.453313   -4.998653    0.926803
C         3.494236   -2.750003    0.411502
C         4.512906   -1.818395    0.630343
C         4.298438   -0.446977    0.535140
C         4.542396    2.452490   -1.087122
C         4.735968    1.393389   -2.079546
S         4.079680    1.750071   -3.860072
C         2.407545    2.322950   -3.502160
C         1.400913    1.258358   -3.025109
H         1.528646    1.137673   -1.935475
N         1.693008   -0.026660   -3.653089
C         1.268360   -1.228726   -3.240760
C         2.052045   -2.419159   -3.741113
O         0.308096   -1.400929   -2.479134
C        -0.036045    1.785332   -3.259209
N        -1.017461    1.029197   -2.725593
C        -2.384138    1.490665   -2.711737
O        -0.252347    2.854598   -3.806072
H         1.821487    1.652470    0.548597
H         0.982816   -0.535284   -0.192865
H         0.535200   -2.653493   -0.999739
H         0.139487   -4.534074   -2.587255
H        -1.686467   -4.579271   -2.308188
H         0.398116   -6.697172   -1.266107
H        -1.430625   -6.756896   -1.036107
H        -0.558494   -4.933211    2.014239
H        -4.245735   -0.385283    4.032260
H        -5.378286    2.856999    5.106139
H        -5.216972    3.562951    3.468645
H        -3.819491    3.575193    4.593711
H        -3.200130    3.668804    2.393640
H         0.049575    2.450995   -0.642612
H         0.600833    3.303735    0.818496
H        -0.041473    4.477647   -1.933613
H         1.530674    4.371204   -1.087315
H        -1.730067    5.943960   -1.064044
H        -1.393368    6.954781    0.360495
H        -2.872493    5.003172    0.825814
H        -1.419634    5.030233    1.850481
H         2.114506    5.855440    0.514954
H         0.834271    5.614030    1.700770
H         1.042505    7.228586    0.964109
H        -1.051577    0.927580   -0.151452
H        -1.995317   -0.953842    1.092231
H        -3.852147   -4.392337    5.613077
H        -2.370507   -5.650591    3.991088
H         3.675147   -3.822181    0.471082
H         5.515932   -2.179538    0.872850
H         5.113406    0.266495    0.666263
H         5.142858    3.360352   -1.189531
H         4.272519    0.434469   -1.821815
H         5.792683    1.193789   -2.319160
H         2.028847    2.804893   -4.412650
H         2.480971    3.099773   -2.727041
H         2.582805    0.006507   -4.160934
H         1.357605   -3.157245   -4.165003
H         2.547706   -2.875970   -2.870350
H         2.814089   -2.157930   -4.486605
H        -0.770671    0.087787   -2.413468
H        -2.749034    1.708223   -3.728300
H        -2.470846    2.411401   -2.111527
H        -3.015551    0.717952   -2.255577
