98
-1 1
O         3.008697    3.678164    0.507159
C         3.389957    2.538445    0.287167
N         2.570772    1.475921    0.612319
C         2.861467    0.103098    0.774138
C         1.996077   -0.825173    0.203796
C         2.203285   -2.199762    0.369884
N         1.279332   -3.050808   -0.264874
C         0.916661   -4.299907    0.108579
C        -0.360028   -4.763487   -0.564821
C        -0.505294   -4.791682   -2.054704
C        -0.401168   -6.081528   -1.298342
C        -1.590300   -4.387855    0.237998
N        -1.399211   -4.516829    1.596829
C        -2.212947   -3.916718    2.568732
N        -2.497577   -2.634093    2.406349
C        -3.246210   -2.046817    3.343319
N        -3.525284   -0.722753    3.253428
C        -2.999588    0.282164    2.425978
C        -3.449717    1.590772    2.689253
O        -4.354855    1.694872    3.703357
C        -4.843919    2.953741    4.062154
C        -2.970606    2.681999    1.971984
C        -2.021387    2.517741    0.940565
N        -1.549482    3.608147    0.203147
C        -0.143716    3.563464   -0.209659
C         0.223068    4.692567   -1.168748
N        -0.154833    6.005664   -0.675930
C        -1.572855    6.005105   -0.403810
C        -2.019403    4.926581    0.588724
C         0.670323    6.505569    0.401399
C        -1.578767    1.208269    0.685917
C        -2.061645    0.117933    1.406142
N        -3.762503   -2.662726    4.428267
C        -3.456221   -3.940506    4.572613
C        -2.660065   -4.646822    3.672179
O        -2.634861   -4.051279   -0.265161
O         1.455084   -4.966151    0.981474
C         3.290089   -2.651097    1.124077
C         4.151425   -1.711314    1.692438
C         3.948836   -0.344494    1.533729
C         4.695796    2.296636   -0.376094
C         5.032559    1.243928   -1.130832
S         4.290388    1.144448   -4.298221
C         2.785407    2.005896   -3.720128
C         1.702317    1.061735   -3.134962
H         1.902414    0.912266   -2.058156
N         1.817757   -0.228497   -3.799924
C         1.362645   -1.398853   -3.379355
C         1.953021   -2.617308   -4.050315
O         0.500734   -1.544367   -2.485754
C         0.292839    1.686073   -3.236815
N        -0.701204    0.956417   -2.673110
C        -2.062913    1.434012   -2.688556
O         0.091855    2.785400   -3.724648
H         1.635139    1.766833    0.879639
H         1.155581   -0.481817   -0.400136
H         0.770456   -2.617710   -1.050112
H         0.351271   -4.465041   -2.645159
H        -1.481117   -4.486412   -2.437286
H         0.533345   -6.646377   -1.342307
H        -1.302803   -6.688076   -1.182425
H        -0.545162   -4.978396    1.902924
H        -4.112932   -0.379175    4.003669
H        -5.548826    2.795722    4.888231
H        -5.377529    3.439711    3.226428
H        -4.037150    3.625498    4.404781
H        -3.327837    3.673946    2.231136
H         0.057000    2.618607   -0.727851
H         0.517319    3.608676    0.678621
H        -0.265664    4.516872   -2.139281
H         1.308048    4.653153   -1.340135
H        -2.104334    5.840691   -1.357131
H        -1.883260    6.990703   -0.018515
H        -3.120209    4.924743    0.612650
H        -1.674972    5.190785    1.613158
H         1.725671    6.478822    0.094653
H         0.603689    5.933803    1.351260
H         0.399041    7.551596    0.620873
H        -0.871442    1.014597   -0.118866
H        -1.711528   -0.884777    1.171925
H        -3.871744   -4.444711    5.453135
H        -2.430774   -5.704325    3.795006
H         3.443156   -3.718727    1.266284
H         5.000930   -2.060537    2.284011
H         4.626147    0.379998    1.987411
H         5.354645    3.166536   -0.311619
H         4.384301    0.379701   -1.281103
H         5.981555    1.218138   -1.666590
H         2.330091    2.571873   -4.543632
H         3.031490    2.739484   -2.935964
H         2.704984   -0.208321   -4.366120
H         1.149660   -3.185636   -4.540855
H         2.393621   -3.255758   -3.269960
H         2.727644   -2.363297   -4.784928
H        -0.490380   -0.014713   -2.428191
H        -2.410551    1.636978   -3.714949
H        -2.157218    2.366616   -2.108812
H        -2.710483    0.676095   -2.229354
