-1 1
 OpenBabel05232413493D

 98101  0  0  1  0  0  0  0  0999 V2000
    3.0087    3.6782    0.5072 O   0  0  0  0  0  0  0  0  0  0  0  0
    3.3900    2.5384    0.2872 C   0  0  0  0  0  0  0  0  0  0  0  0
    2.5708    1.4759    0.6123 N   0  0  0  0  0  0  0  0  0  0  0  0
    2.8615    0.1031    0.7741 C   0  0  0  0  0  0  0  0  0  0  0  0
    1.9961   -0.8252    0.2038 C   0  0  0  0  0  0  0  0  0  0  0  0
    2.2033   -2.1998    0.3699 C   0  0  0  0  0  0  0  0  0  0  0  0
    1.2793   -3.0508   -0.2649 N   0  0  0  0  0  0  0  0  0  0  0  0
    0.9167   -4.2999    0.1086 C   0  0  0  0  0  0  0  0  0  0  0  0
   -0.3600   -4.7635   -0.5648 C   0  0  0  0  0  0  0  0  0  0  0  0
   -0.5053   -4.7917   -2.0547 C   0  0  0  0  0  0  0  0  0  0  0  0
   -0.4012   -6.0815   -1.2983 C   0  0  0  0  0  0  0  0  0  0  0  0
   -1.5903   -4.3879    0.2380 C   0  0  0  0  0  0  0  0  0  0  0  0
   -1.3992   -4.5168    1.5968 N   0  0  0  0  0  0  0  0  0  0  0  0
   -2.2129   -3.9167    2.5687 C   0  0  0  0  0  0  0  0  0  0  0  0
   -2.4976   -2.6341    2.4063 N   0  0  0  0  0  0  0  0  0  0  0  0
   -3.2462   -2.0468    3.3433 C   0  0  0  0  0  0  0  0  0  0  0  0
   -3.5253   -0.7228    3.2534 N   0  0  0  0  0  0  0  0  0  0  0  0
   -2.9996    0.2822    2.4260 C   0  0  0  0  0  0  0  0  0  0  0  0
   -3.4497    1.5908    2.6893 C   0  0  0  0  0  0  0  0  0  0  0  0
   -4.3549    1.6949    3.7034 O   0  0  0  0  0  0  0  0  0  0  0  0
   -4.8439    2.9537    4.0622 C   0  0  0  0  0  0  0  0  0  0  0  0
   -2.9706    2.6820    1.9720 C   0  0  0  0  0  0  0  0  0  0  0  0
   -2.0214    2.5177    0.9406 C   0  0  0  0  0  0  0  0  0  0  0  0
   -1.5495    3.6081    0.2031 N   0  0  0  0  0  0  0  0  0  0  0  0
   -0.1437    3.5635   -0.2097 C   0  0  0  0  0  0  0  0  0  0  0  0
    0.2231    4.6926   -1.1687 C   0  0  0  0  0  0  0  0  0  0  0  0
   -0.1548    6.0057   -0.6759 N   0  0  0  0  0  0  0  0  0  0  0  0
   -1.5729    6.0051   -0.4038 C   0  0  0  0  0  0  0  0  0  0  0  0
   -2.0194    4.9266    0.5887 C   0  0  0  0  0  0  0  0  0  0  0  0
    0.6703    6.5056    0.4014 C   0  0  0  0  0  0  0  0  0  0  0  0
   -1.5788    1.2083    0.6859 C   0  0  0  0  0  0  0  0  0  0  0  0
   -2.0616    0.1179    1.4061 C   0  0  0  0  0  0  0  0  0  0  0  0
   -3.7625   -2.6627    4.4283 N   0  0  0  0  0  0  0  0  0  0  0  0
   -3.4562   -3.9405    4.5726 C   0  0  0  0  0  0  0  0  0  0  0  0
   -2.6601   -4.6468    3.6722 C   0  0  0  0  0  0  0  0  0  0  0  0
   -2.6349   -4.0513   -0.2652 O   0  0  0  0  0  0  0  0  0  0  0  0
    1.4551   -4.9662    0.9815 O   0  0  0  0  0  0  0  0  0  0  0  0
    3.2901   -2.6511    1.1241 C   0  0  0  0  0  0  0  0  0  0  0  0
    4.1514   -1.7113    1.6924 C   0  0  0  0  0  0  0  0  0  0  0  0
    3.9488   -0.3445    1.5337 C   0  0  0  0  0  0  0  0  0  0  0  0
    4.6958    2.2966   -0.3761 C   0  0  0  0  0  0  0  0  0  0  0  0
    5.0326    1.2439   -1.1308 C   0  0  0  0  0  0  0  0  0  0  0  0
    4.2904    1.1444   -4.2982 S   0  0  0  0  0  1  0  0  0  0  0  0
    2.7854    2.0059   -3.7201 C   0  0  0  0  0  0  0  0  0  0  0  0
    1.7023    1.0617   -3.1350 C   0  0  2  0  0  0  0  0  0  0  0  0
    1.9024    0.9123   -2.0582 H   0  0  0  0  0  0  0  0  0  0  0  0
    1.8178   -0.2285   -3.7999 N   0  0  0  0  0  0  0  0  0  0  0  0
    1.3626   -1.3989   -3.3794 C   0  0  0  0  0  0  0  0  0  0  0  0
    1.9530   -2.6173   -4.0503 C   0  0  0  0  0  0  0  0  0  0  0  0
    0.5007   -1.5444   -2.4858 O   0  0  0  0  0  0  0  0  0  0  0  0
    0.2928    1.6861   -3.2368 C   0  0  0  0  0  0  0  0  0  0  0  0
   -0.7012    0.9564   -2.6731 N   0  0  0  0  0  0  0  0  0  0  0  0
   -2.0629    1.4340   -2.6886 C   0  0  0  0  0  0  0  0  0  0  0  0
    0.0919    2.7854   -3.7246 O   0  0  0  0  0  0  0  0  0  0  0  0
    1.6351    1.7668    0.8796 H   0  0  0  0  0  0  0  0  0  0  0  0
    1.1556   -0.4818   -0.4001 H   0  0  0  0  0  0  0  0  0  0  0  0
    0.7705   -2.6177   -1.0501 H   0  0  0  0  0  0  0  0  0  0  0  0
    0.3513   -4.4650   -2.6452 H   0  0  0  0  0  0  0  0  0  0  0  0
   -1.4811   -4.4864   -2.4373 H   0  0  0  0  0  0  0  0  0  0  0  0
    0.5333   -6.6464   -1.3423 H   0  0  0  0  0  0  0  0  0  0  0  0
   -1.3028   -6.6881   -1.1824 H   0  0  0  0  0  0  0  0  0  0  0  0
   -0.5452   -4.9784    1.9029 H   0  0  0  0  0  0  0  0  0  0  0  0
   -4.1129   -0.3792    4.0037 H   0  0  0  0  0  0  0  0  0  0  0  0
   -5.5488    2.7957    4.8882 H   0  0  0  0  0  0  0  0  0  0  0  0
   -5.3775    3.4397    3.2264 H   0  0  0  0  0  0  0  0  0  0  0  0
   -4.0371    3.6255    4.4048 H   0  0  0  0  0  0  0  0  0  0  0  0
   -3.3278    3.6739    2.2311 H   0  0  0  0  0  0  0  0  0  0  0  0
    0.0570    2.6186   -0.7279 H   0  0  0  0  0  0  0  0  0  0  0  0
    0.5173    3.6087    0.6786 H   0  0  0  0  0  0  0  0  0  0  0  0
   -0.2657    4.5169   -2.1393 H   0  0  0  0  0  0  0  0  0  0  0  0
    1.3080    4.6532   -1.3401 H   0  0  0  0  0  0  0  0  0  0  0  0
   -2.1043    5.8407   -1.3571 H   0  0  0  0  0  0  0  0  0  0  0  0
   -1.8833    6.9907   -0.0185 H   0  0  0  0  0  0  0  0  0  0  0  0
   -3.1202    4.9247    0.6127 H   0  0  0  0  0  0  0  0  0  0  0  0
   -1.6750    5.1908    1.6132 H   0  0  0  0  0  0  0  0  0  0  0  0
    1.7257    6.4788    0.0947 H   0  0  0  0  0  0  0  0  0  0  0  0
    0.6037    5.9338    1.3513 H   0  0  0  0  0  0  0  0  0  0  0  0
    0.3990    7.5516    0.6209 H   0  0  0  0  0  0  0  0  0  0  0  0
   -0.8714    1.0146   -0.1189 H   0  0  0  0  0  0  0  0  0  0  0  0
   -1.7115   -0.8848    1.1719 H   0  0  0  0  0  0  0  0  0  0  0  0
   -3.8717   -4.4447    5.4531 H   0  0  0  0  0  0  0  0  0  0  0  0
   -2.4308   -5.7043    3.7950 H   0  0  0  0  0  0  0  0  0  0  0  0
    3.4432   -3.7187    1.2663 H   0  0  0  0  0  0  0  0  0  0  0  0
    5.0009   -2.0605    2.2840 H   0  0  0  0  0  0  0  0  0  0  0  0
    4.6261    0.3800    1.9874 H   0  0  0  0  0  0  0  0  0  0  0  0
    5.3546    3.1665   -0.3116 H   0  0  0  0  0  0  0  0  0  0  0  0
    4.3843    0.3797   -1.2811 H   0  0  0  0  0  0  0  0  0  0  0  0
    5.9816    1.2181   -1.6666 H   0  0  0  0  0  0  0  0  0  0  0  0
    2.3301    2.5719   -4.5436 H   0  0  0  0  0  0  0  0  0  0  0  0
    3.0315    2.7395   -2.9360 H   0  0  0  0  0  0  0  0  0  0  0  0
    2.7050   -0.2083   -4.3661 H   0  0  0  0  0  0  0  0  0  0  0  0
    1.1497   -3.1856   -4.5409 H   0  0  0  0  0  0  0  0  0  0  0  0
    2.3936   -3.2558   -3.2700 H   0  0  0  0  0  0  0  0  0  0  0  0
    2.7276   -2.3633   -4.7849 H   0  0  0  0  0  0  0  0  0  0  0  0
   -0.4904   -0.0147   -2.4282 H   0  0  0  0  0  0  0  0  0  0  0  0
   -2.4106    1.6370   -3.7149 H   0  0  0  0  0  0  0  0  0  0  0  0
   -2.1572    2.3666   -2.1088 H   0  0  0  0  0  0  0  0  0  0  0  0
   -2.7105    0.6761   -2.2294 H   0  0  0  0  0  0  0  0  0  0  0  0
  2  1  2  0  0  0  0
  2  3  1  0  0  0  0
  3  4  1  0  0  0  0
  3 55  1  0  0  0  0
  4 40  1  0  0  0  0
  5  6  1  0  0  0  0
  5  4  2  0  0  0  0
  6 38  2  0  0  0  0
  7  8  1  0  0  0  0
  7  6  1  0  0  0  0
  8 37  2  0  0  0  0
  9  8  1  0  0  0  0
  9 12  1  0  0  0  0
 10 11  1  0  0  0  0
 10  9  1  0  0  0  0
 11 61  1  0  0  0  0
 11  9  1  0  0  0  0
 12 13  1  0  0  0  0
 13 62  1  0  0  0  0
 13 14  1  0  0  0  0
 14 35  2  0  0  0  0
 15 14  1  0  0  0  0
 15 16  2  0  0  0  0
 16 33  1  0  0  0  0
 17 16  1  0  0  0  0
 17 63  1  0  0  0  0
 18 19  1  0  0  0  0
 18 17  1  0  0  0  0
 19 20  1  0  0  0  0
 20 21  1  0  0  0  0
 21 66  1  0  0  0  0
 21 64  1  0  0  0  0
 22 67  1  0  0  0  0
 22 19  2  0  0  0  0
 23 22  1  0  0  0  0
 24 29  1  0  0  0  0
 24 23  1  0  0  0  0
 25 24  1  0  0  0  0
 25 69  1  0  0  0  0
 26 27  1  0  0  0  0
 26 25  1  0  0  0  0
 27 28  1  0  0  0  0
 27 30  1  0  0  0  0
 28 73  1  0  0  0  0
 28 29  1  0  0  0  0
 29 74  1  0  0  0  0
 29 75  1  0  0  0  0
 30 78  1  0  0  0  0
 30 77  1  0  0  0  0
 31 23  2  0  0  0  0
 31 32  1  0  0  0  0
 32 18  2  0  0  0  0
 33 34  2  0  0  0  0
 34 81  1  0  0  0  0
 35 82  1  0  0  0  0
 35 34  1  0  0  0  0
 36 12  2  0  0  0  0
 38 83  1  0  0  0  0
 38 39  1  0  0  0  0
 39 84  1  0  0  0  0
 40 39  2  0  0  0  0
 40 85  1  0  0  0  0
 41 86  1  0  0  0  0
 41  2  1  0  0  0  0
 42 41  2  0  0  0  0
 43 44  1  0  0  0  0
 44 45  1  0  0  0  0
 44 90  1  0  0  0  0
 45 46  1  1  0  0  0
 47 48  1  0  0  0  0
 47 45  1  0  0  0  0
 48 50  2  0  0  0  0
 49 48  1  0  0  0  0
 49 93  1  0  0  0  0
 51 45  1  0  0  0  0
 51 52  1  0  0  0  0
 52 95  1  0  0  0  0
 53 52  1  0  0  0  0
 53 98  1  0  0  0  0
 53 97  1  0  0  0  0
 54 51  2  0  0  0  0
 56  5  1  0  0  0  0
 57  7  1  0  0  0  0
 58 10  1  0  0  0  0
 59 10  1  0  0  0  0
 60 11  1  0  0  0  0
 65 21  1  0  0  0  0
 68 25  1  0  0  0  0
 70 26  1  0  0  0  0
 71 26  1  0  0  0  0
 72 28  1  0  0  0  0
 76 30  1  0  0  0  0
 79 31  1  0  0  0  0
 80 32  1  0  0  0  0
 87 42  1  0  0  0  0
 88 42  1  0  0  0  0
 89 44  1  0  0  0  0
 91 47  1  0  0  0  0
 92 49  1  0  0  0  0
 94 49  1  0  0  0  0
 96 53  1  0  0  0  0
M  END
