88
-1 1
O        -6.867282   -8.937273   -0.259935
C        -7.298330   -9.294122   -1.360221
N        -6.653916  -10.335163   -2.053342
C        -5.347979  -10.783039   -1.899579
C        -4.367729  -10.007232   -1.270710
C        -3.034569  -10.428598   -1.237582
N        -2.107879   -9.511393   -0.703478
C        -0.810631   -9.410617   -1.094261
N        -0.167358   -8.195927   -0.795846
C        -0.611889   -7.035119   -0.198198
N        -1.648881   -7.101042    0.625135
C        -2.031082   -5.966386    1.223121
N        -3.039025   -6.027535    2.132192
C        -3.642201   -7.214003    2.612288
C        -3.372166   -7.650087    3.920884
O        -2.511623   -6.981424    4.740078
C        -1.180599   -6.822607    4.297421
C        -4.020722   -8.778422    4.415933
C        -4.903380   -9.503103    3.610914
C        -5.598056  -10.676754    4.247196
N        -5.786103  -11.817878    3.513759
C        -5.098834  -12.166744    2.274292
C        -6.013468  -12.299347    1.064145
C        -6.510537  -12.895807    4.171951
C        -5.636937  -13.728271    5.105956
O        -5.984768  -10.598400    5.404914
C        -5.164389   -9.067138    2.308409
C        -4.535657   -7.928878    1.819085
N        -1.465813   -4.762093    1.060209
C        -0.438622   -4.716168    0.219630
C         0.060025   -5.824092   -0.446189
O        -0.177237  -10.246754   -1.710791
C        -2.668580  -11.669707   -1.776077
C        -3.656243  -12.443114   -2.384515
C        -4.977264  -12.017190   -2.460750
C        -8.459374   -8.734960   -1.992041
C        -8.801870   -8.851526   -3.329626
S        -8.079073   -7.095333   -4.830113
C        -6.275519   -7.260107   -5.051147
C        -5.469090   -7.421928   -3.749528
H        -5.594154   -8.455198   -3.383793
N        -5.968108   -6.506225   -2.752723
C        -5.409846   -6.358122   -1.538933
C        -6.254000   -5.640322   -0.513392
O        -4.308234   -6.826511   -1.251618
C        -3.983463   -7.174809   -4.046637
N        -3.190326   -8.267185   -3.889215
C        -1.761433   -8.149553   -4.021054
O        -3.567276   -6.112771   -4.467820
H        -7.184254  -10.771058   -2.794117
H        -4.626968   -9.025345   -0.884384
H        -2.487211   -8.700882   -0.205488
H         0.720461   -8.145508   -1.278945
H        -3.176673   -5.172227    2.656142
H        -1.000886   -5.813036    3.892443
H        -0.923516   -7.560199    3.519328
H        -0.518786   -6.975247    5.163248
H        -3.829014   -9.091222    5.443095
H        -4.570341  -13.122390    2.443706
H        -4.317767  -11.423583    2.072679
H        -5.433006  -12.653914    0.200342
H        -6.463704  -11.335780    0.784836
H        -6.824767  -13.021315    1.245764
H        -6.951552  -13.531866    3.389412
H        -7.336860  -12.451540    4.742800
H        -4.781586  -14.169683    4.570663
H        -6.219014  -14.551100    5.548754
H        -5.255792  -13.095148    5.919040
H        -5.883945   -9.559847    1.654865
H        -4.737163   -7.569952    0.808887
H         0.020564   -3.732836    0.066968
H         0.897937   -5.756757   -1.139431
H        -1.631936  -11.993481   -1.750430
H        -3.380523  -13.406441   -2.820793
H        -5.730933  -12.635844   -2.954432
H        -9.012306   -8.038928   -1.357369
H        -9.807118   -8.567007   -3.642692
H        -8.353461   -9.614858   -3.970763
H        -5.916455   -6.349555   -5.554546
H        -6.031938   -8.114507   -5.701492
H        -6.936552   -6.223746   -2.921478
H        -6.819280   -6.422371    0.019988
H        -6.962247   -4.931666   -0.964171
H        -5.599165   -5.124473    0.200243
H        -3.553249   -9.025788   -3.323731
H        -1.299390   -9.133229   -3.864401
H        -1.343837   -7.438388   -3.286593
H        -1.496941   -7.778890   -5.022453
