88
-1 1
O        -2.503573   -0.493405   -0.045412
C        -2.944657   -0.854079   -1.165101
N        -2.275409   -1.970050   -1.798668
C        -0.943336   -2.296252   -1.726673
C         0.014073   -1.416316   -1.192614
C         1.378473   -1.713277   -1.251389
N         2.258963   -0.698393   -0.813485
C         3.508674   -0.503631   -1.300729
N         4.102143    0.741790   -1.023397
C         3.742696    1.819793   -0.247889
N         2.764380    1.690877    0.638865
C         2.509083    2.748257    1.419031
N         1.575105    2.641461    2.404754
C         0.841550    1.510946    2.798654
C         0.811000    1.200845    4.168771
O         1.520242    1.986811    5.043748
C         2.862693    1.596784    5.205535
C         0.046354    0.140029    4.629730
C        -0.688489   -0.645373    3.733812
C        -1.547987   -1.718441    4.346689
N        -1.713380   -2.910395    3.696411
C        -0.910780   -3.408162    2.584362
C        -1.685713   -3.587471    1.286539
C        -2.597900   -3.875378    4.332640
C        -1.921656   -4.667473    5.448098
O        -2.080771   -1.515443    5.430761
C        -0.679363   -0.319504    2.372925
C         0.082723    0.750856    1.911528
N         3.134417    3.934265    1.372319
C         4.090172    4.049564    0.458278
C         4.461275    3.023685   -0.392328
O         4.146733   -1.279691   -1.988514
C         1.821924   -2.934616   -1.777000
C         0.864791   -3.820128   -2.271726
C        -0.490974   -3.519466   -2.263773
C        -4.021875   -0.313775   -1.849394
C        -4.354371   -0.495901   -3.279616
S        -4.107143    1.015951   -4.377285
C        -2.325091    1.022557   -4.733619
C        -1.369180    1.026912   -3.535390
H        -1.357102    0.017709   -3.095162
N        -1.802860    1.976919   -2.537303
C        -1.125103    2.142526   -1.375590
C        -1.928712    2.711970   -0.235375
O         0.044362    1.793139   -1.244326
C         0.036653    1.359855   -4.062619
N         0.941111    0.365823   -3.895248
C         2.328071    0.573738   -4.222911
O         0.277761    2.395805   -4.653982
H        -2.855217   -2.595931   -2.338046
H        -0.317512   -0.466763   -0.782899
H         1.850026    0.084845   -0.299888
H         4.954055    0.841038   -1.560342
H         1.612182    3.401847    3.073528
H         3.413254    1.617538    4.247912
H         2.935714    0.578456    5.626923
H         3.330377    2.306803    5.901146
H         0.003080   -0.067748    5.700010
H        -0.472059   -4.373804    2.897067
H        -0.063416   -2.730680    2.424775
H        -1.020220   -3.995848    0.511647
H        -2.083362   -2.630503    0.915528
H        -2.526394   -4.288166    1.411210
H        -2.972844   -4.553924    3.551657
H        -3.460041   -3.331256    4.740791
H        -1.035159   -5.206412    5.078018
H        -2.615663   -5.409631    5.872188
H        -1.610282   -3.983848    6.250026
H        -1.316899   -0.823825    1.642023
H         0.055898    1.038718    0.858742
H         4.596083    5.020411    0.402541
H         5.247546    3.141767   -1.137578
H         2.882457   -3.162959   -1.823745
H         1.194900   -4.774581   -2.690503
H        -1.215315   -4.226045   -2.678042
H        -4.594475    0.435442   -1.295115
H        -5.422981   -0.698445   -3.467493
H        -3.786126   -1.304654   -3.764976
H        -2.157269    1.940863   -5.316533
H        -2.069929    0.165038   -5.374511
H        -2.812984    2.094931   -2.506837
H        -2.396364    1.837093    0.251743
H        -2.716396    3.399248   -0.574511
H        -1.262640    3.216280    0.475406
H         0.716376   -0.352945   -3.214576
H         2.877792   -0.366262   -4.085194
H         2.783962    1.346031   -3.578599
H         2.426548    0.910561   -5.265055
