88
-1 1
O        -3.221581   -0.162431    0.577031
C        -3.547168   -0.122695   -0.607191
N        -2.899646   -0.799615   -1.585938
C        -1.666202   -1.456093   -1.418921
C        -0.646840   -0.901146   -0.648287
C         0.637232   -1.443635   -0.672894
N         1.665045   -0.698540   -0.047603
C         2.779407   -0.361378   -0.756287
N         3.389860    0.859550   -0.430090
C         2.869794    1.963555    0.209765
N         1.947467    1.785414    1.148064
C         1.490795    2.871986    1.780843
N         0.578086    2.684628    2.775467
C         0.150668    1.412312    3.231088
C         0.748856    0.816098    4.356044
O         1.720496    1.431261    5.082481
C         2.920073    1.791616    4.431129
C         0.310947   -0.437118    4.780529
C        -0.684937   -1.121833    4.082366
C        -1.107018   -2.462814    4.621197
N        -1.282138   -3.494906    3.742116
C        -0.800914   -3.536065    2.363184
C        -1.901880   -3.620926    1.316050
C        -1.726544   -4.760326    4.309457
C        -0.592673   -5.575746    4.923720
O        -1.282605   -2.606785    5.822522
C        -1.294462   -0.517661    2.980197
C        -0.879638    0.743809    2.572066
N         1.879161    4.132591    1.562758
C         2.808634    4.290053    0.621176
C         3.363735    3.245464   -0.094192
O         3.280749   -1.033056   -1.640118
C         0.887222   -2.617690   -1.390920
C        -0.146858   -3.185109   -2.135919
C        -1.412112   -2.606974   -2.173677
C        -4.726395    0.708075   -1.001595
C        -5.021191    1.153639   -2.224782
S        -2.918289   -0.285303   -4.786447
C        -1.147220   -0.077886   -5.207584
C        -0.223819    0.296692   -4.032431
H        -0.065318   -0.591013   -3.397523
N        -0.847497    1.335054   -3.245143
C        -0.270216    1.876578   -2.162528
C        -1.158441    2.768501   -1.318473
O         0.892469    1.643384   -1.839421
C         1.133440    0.773099   -4.567203
N         2.186380   -0.021389   -4.238869
C         3.524562    0.401398   -4.556311
O         1.246897    1.752745   -5.281127
H        -3.144439   -0.682167   -2.596455
H        -0.823415    0.019966   -0.100060
H         1.359507    0.031252    0.602843
H         4.123574    1.053246   -1.100693
H         0.368131    3.509265    3.323382
H         2.919766    2.851962    4.129875
H         3.093697    1.173526    3.535873
H         3.743069    1.630205    5.142668
H         0.767419   -0.880952    5.666188
H        -0.133484   -4.411201    2.269083
H        -0.170536   -2.658619    2.171950
H        -1.454191   -3.760143    0.322109
H        -2.501085   -2.700074    1.277344
H        -2.577613   -4.469615    1.504410
H        -2.222535   -5.331508    3.510183
H        -2.479560   -4.542038    5.078584
H         0.194395   -5.791251    4.184293
H        -0.970464   -6.536953    5.304529
H        -0.147586   -5.021061    5.761342
H        -2.103505   -0.991647    2.425389
H        -1.378566    1.221840    1.727848
H         3.128153    5.319583    0.424337
H         4.102711    3.407680   -0.877844
H         1.889295   -3.041318   -1.404658
H         0.049951   -4.084379   -2.723926
H        -2.201043   -3.010732   -2.808937
H        -5.329564    0.992100   -0.133939
H        -5.893677    1.796136   -2.374531
H        -4.417314    0.912798   -3.111686
H        -1.051087    0.715250   -5.964546
H        -0.746290   -1.003714   -5.648239
H        -1.850187    1.428224   -3.427204
H        -1.653218    2.153345   -0.549547
H        -1.942741    3.262344   -1.908289
H        -0.537266    3.518354   -0.811927
H         2.090775   -0.633550   -3.434676
H         4.227785   -0.392788   -4.274973
H         3.801364    1.327468   -4.019226
H         3.613601    0.610551   -5.632094
