-1 1
 OpenBabel05192410563D

 88 90  0  0  1  0  0  0  0  0999 V2000
   -2.5036   -0.4934   -0.0454 O   0  0  0  0  0  0  0  0  0  0  0  0
   -2.9447   -0.8541   -1.1651 C   0  0  0  0  0  0  0  0  0  0  0  0
   -2.2754   -1.9701   -1.7987 N   0  0  0  0  0  0  0  0  0  0  0  0
   -0.9433   -2.2963   -1.7267 C   0  0  0  0  0  0  0  0  0  0  0  0
    0.0141   -1.4163   -1.1926 C   0  0  0  0  0  0  0  0  0  0  0  0
    1.3785   -1.7133   -1.2514 C   0  0  0  0  0  0  0  0  0  0  0  0
    2.2590   -0.6984   -0.8135 N   0  0  0  0  0  0  0  0  0  0  0  0
    3.5087   -0.5036   -1.3007 C   0  0  0  0  0  0  0  0  0  0  0  0
    4.1021    0.7418   -1.0234 N   0  0  0  0  0  0  0  0  0  0  0  0
    3.7427    1.8198   -0.2479 C   0  0  0  0  0  0  0  0  0  0  0  0
    2.7644    1.6909    0.6389 N   0  0  0  0  0  0  0  0  0  0  0  0
    2.5091    2.7483    1.4190 C   0  0  0  0  0  0  0  0  0  0  0  0
    1.5751    2.6415    2.4048 N   0  0  0  0  0  0  0  0  0  0  0  0
    0.8416    1.5109    2.7987 C   0  0  0  0  0  0  0  0  0  0  0  0
    0.8110    1.2008    4.1688 C   0  0  0  0  0  0  0  0  0  0  0  0
    1.5202    1.9868    5.0437 O   0  0  0  0  0  0  0  0  0  0  0  0
    2.8627    1.5968    5.2055 C   0  0  0  0  0  0  0  0  0  0  0  0
    0.0464    0.1400    4.6297 C   0  0  0  0  0  0  0  0  0  0  0  0
   -0.6885   -0.6454    3.7338 C   0  0  0  0  0  0  0  0  0  0  0  0
   -1.5480   -1.7184    4.3467 C   0  0  0  0  0  0  0  0  0  0  0  0
   -1.7134   -2.9104    3.6964 N   0  0  0  0  0  0  0  0  0  0  0  0
   -0.9108   -3.4082    2.5844 C   0  0  0  0  0  0  0  0  0  0  0  0
   -1.6857   -3.5875    1.2865 C   0  0  0  0  0  0  0  0  0  0  0  0
   -2.5979   -3.8754    4.3326 C   0  0  0  0  0  0  0  0  0  0  0  0
   -1.9217   -4.6675    5.4481 C   0  0  0  0  0  0  0  0  0  0  0  0
   -2.0808   -1.5154    5.4308 O   0  0  0  0  0  0  0  0  0  0  0  0
   -0.6794   -0.3195    2.3729 C   0  0  0  0  0  0  0  0  0  0  0  0
    0.0827    0.7509    1.9115 C   0  0  0  0  0  0  0  0  0  0  0  0
    3.1344    3.9343    1.3723 N   0  0  0  0  0  0  0  0  0  0  0  0
    4.0902    4.0496    0.4583 C   0  0  0  0  0  0  0  0  0  0  0  0
    4.4613    3.0237   -0.3923 C   0  0  0  0  0  0  0  0  0  0  0  0
    4.1467   -1.2797   -1.9885 O   0  0  0  0  0  0  0  0  0  0  0  0
    1.8219   -2.9346   -1.7770 C   0  0  0  0  0  0  0  0  0  0  0  0
    0.8648   -3.8201   -2.2717 C   0  0  0  0  0  0  0  0  0  0  0  0
   -0.4910   -3.5195   -2.2638 C   0  0  0  0  0  0  0  0  0  0  0  0
   -4.0219   -0.3138   -1.8494 C   0  0  0  0  0  3  0  0  0  0  0  0
   -4.3544   -0.4959   -3.2796 C   0  0  0  0  0  0  0  0  0  0  0  0
   -4.1071    1.0160   -4.3773 S   0  0  0  0  0  0  0  0  0  0  0  0
   -2.3251    1.0226   -4.7336 C   0  0  0  0  0  0  0  0  0  0  0  0
   -1.3692    1.0269   -3.5354 C   0  0  2  0  0  0  0  0  0  0  0  0
   -1.3571    0.0177   -3.0952 H   0  0  0  0  0  0  0  0  0  0  0  0
   -1.8029    1.9769   -2.5373 N   0  0  0  0  0  0  0  0  0  0  0  0
   -1.1251    2.1425   -1.3756 C   0  0  0  0  0  0  0  0  0  0  0  0
   -1.9287    2.7120   -0.2354 C   0  0  0  0  0  0  0  0  0  0  0  0
    0.0444    1.7931   -1.2443 O   0  0  0  0  0  0  0  0  0  0  0  0
    0.0367    1.3599   -4.0626 C   0  0  0  0  0  0  0  0  0  0  0  0
    0.9411    0.3658   -3.8952 N   0  0  0  0  0  0  0  0  0  0  0  0
    2.3281    0.5737   -4.2229 C   0  0  0  0  0  0  0  0  0  0  0  0
    0.2778    2.3958   -4.6540 O   0  0  0  0  0  0  0  0  0  0  0  0
   -2.8552   -2.5959   -2.3380 H   0  0  0  0  0  0  0  0  0  0  0  0
   -0.3175   -0.4668   -0.7829 H   0  0  0  0  0  0  0  0  0  0  0  0
    1.8500    0.0848   -0.2999 H   0  0  0  0  0  0  0  0  0  0  0  0
    4.9541    0.8410   -1.5603 H   0  0  0  0  0  0  0  0  0  0  0  0
    1.6122    3.4018    3.0735 H   0  0  0  0  0  0  0  0  0  0  0  0
    3.4133    1.6175    4.2479 H   0  0  0  0  0  0  0  0  0  0  0  0
    2.9357    0.5785    5.6269 H   0  0  0  0  0  0  0  0  0  0  0  0
    3.3304    2.3068    5.9011 H   0  0  0  0  0  0  0  0  0  0  0  0
    0.0031   -0.0677    5.7000 H   0  0  0  0  0  0  0  0  0  0  0  0
   -0.4721   -4.3738    2.8971 H   0  0  0  0  0  0  0  0  0  0  0  0
   -0.0634   -2.7307    2.4248 H   0  0  0  0  0  0  0  0  0  0  0  0
   -1.0202   -3.9958    0.5116 H   0  0  0  0  0  0  0  0  0  0  0  0
   -2.0834   -2.6305    0.9155 H   0  0  0  0  0  0  0  0  0  0  0  0
   -2.5264   -4.2882    1.4112 H   0  0  0  0  0  0  0  0  0  0  0  0
   -2.9728   -4.5539    3.5517 H   0  0  0  0  0  0  0  0  0  0  0  0
   -3.4600   -3.3313    4.7408 H   0  0  0  0  0  0  0  0  0  0  0  0
   -1.0352   -5.2064    5.0780 H   0  0  0  0  0  0  0  0  0  0  0  0
   -2.6157   -5.4096    5.8722 H   0  0  0  0  0  0  0  0  0  0  0  0
   -1.6103   -3.9838    6.2500 H   0  0  0  0  0  0  0  0  0  0  0  0
   -1.3169   -0.8238    1.6420 H   0  0  0  0  0  0  0  0  0  0  0  0
    0.0559    1.0387    0.8587 H   0  0  0  0  0  0  0  0  0  0  0  0
    4.5961    5.0204    0.4025 H   0  0  0  0  0  0  0  0  0  0  0  0
    5.2475    3.1418   -1.1376 H   0  0  0  0  0  0  0  0  0  0  0  0
    2.8825   -3.1630   -1.8237 H   0  0  0  0  0  0  0  0  0  0  0  0
    1.1949   -4.7746   -2.6905 H   0  0  0  0  0  0  0  0  0  0  0  0
   -1.2153   -4.2260   -2.6780 H   0  0  0  0  0  0  0  0  0  0  0  0
   -4.5945    0.4354   -1.2951 H   0  0  0  0  0  0  0  0  0  0  0  0
   -5.4230   -0.6984   -3.4675 H   0  0  0  0  0  0  0  0  0  0  0  0
   -3.7861   -1.3047   -3.7650 H   0  0  0  0  0  0  0  0  0  0  0  0
   -2.1573    1.9409   -5.3165 H   0  0  0  0  0  0  0  0  0  0  0  0
   -2.0699    0.1650   -5.3745 H   0  0  0  0  0  0  0  0  0  0  0  0
   -2.8130    2.0949   -2.5068 H   0  0  0  0  0  0  0  0  0  0  0  0
   -2.3964    1.8371    0.2517 H   0  0  0  0  0  0  0  0  0  0  0  0
   -2.7164    3.3992   -0.5745 H   0  0  0  0  0  0  0  0  0  0  0  0
   -1.2626    3.2163    0.4754 H   0  0  0  0  0  0  0  0  0  0  0  0
    0.7164   -0.3529   -3.2146 H   0  0  0  0  0  0  0  0  0  0  0  0
    2.8778   -0.3663   -4.0852 H   0  0  0  0  0  0  0  0  0  0  0  0
    2.7840    1.3460   -3.5786 H   0  0  0  0  0  0  0  0  0  0  0  0
    2.4265    0.9106   -5.2651 H   0  0  0  0  0  0  0  0  0  0  0  0
  2  1  2  0  0  0  0
  3  4  1  0  0  0  0
  3  2  1  0  0  0  0
  4  5  1  0  0  0  0
  5 51  1  0  0  0  0
  6  5  2  0  0  0  0
  6  7  1  0  0  0  0
  7 52  1  0  0  0  0
  8  9  1  0  0  0  0
  8  7  1  0  0  0  0
  9 10  1  0  0  0  0
 10 11  1  0  0  0  0
 11 12  2  0  0  0  0
 12 13  1  0  0  0  0
 13 14  1  0  0  0  0
 13 54  1  0  0  0  0
 14 15  1  0  0  0  0
 15 18  2  0  0  0  0
 15 16  1  0  0  0  0
 16 17  1  0  0  0  0
 17 56  1  0  0  0  0
 17 57  1  0  0  0  0
 18 58  1  0  0  0  0
 19 20  1  0  0  0  0
 19 18  1  0  0  0  0
 20 26  2  0  0  0  0
 21 24  1  0  0  0  0
 21 20  1  0  0  0  0
 22 59  1  0  0  0  0
 22 21  1  0  0  0  0
 23 63  1  0  0  0  0
 23 22  1  0  0  0  0
 24 65  1  0  0  0  0
 24 25  1  0  0  0  0
 25 67  1  0  0  0  0
 25 68  1  0  0  0  0
 27 19  2  0  0  0  0
 28 27  1  0  0  0  0
 28 14  2  0  0  0  0
 29 12  1  0  0  0  0
 30 29  2  0  0  0  0
 31 10  2  0  0  0  0
 31 30  1  0  0  0  0
 32  8  2  0  0  0  0
 33  6  1  0  0  0  0
 34 35  1  0  0  0  0
 34 33  2  0  0  0  0
 35  4  2  0  0  0  0
 36 76  1  0  0  0  0
 36  2  1  0  0  0  0
 37 36  1  0  0  0  0
 38 37  1  0  0  0  0
 39 38  1  0  0  0  0
 39 40  1  0  0  0  0
 40 41  1  1  0  0  0
 40 42  1  0  0  0  0
 42 81  1  0  0  0  0
 42 43  1  0  0  0  0
 43 45  2  0  0  0  0
 43 44  1  0  0  0  0
 44 82  1  0  0  0  0
 44 84  1  0  0  0  0
 46 47  1  0  0  0  0
 46 40  1  0  0  0  0
 47 85  1  0  0  0  0
 48 86  1  0  0  0  0
 48 47  1  0  0  0  0
 48 87  1  0  0  0  0
 49 46  2  0  0  0  0
 50  3  1  0  0  0  0
 53  9  1  0  0  0  0
 55 17  1  0  0  0  0
 60 22  1  0  0  0  0
 61 23  1  0  0  0  0
 62 23  1  0  0  0  0
 64 24  1  0  0  0  0
 66 25  1  0  0  0  0
 69 27  1  0  0  0  0
 70 28  1  0  0  0  0
 71 30  1  0  0  0  0
 72 31  1  0  0  0  0
 73 33  1  0  0  0  0
 74 34  1  0  0  0  0
 75 35  1  0  0  0  0
 77 37  1  0  0  0  0
 78 37  1  0  0  0  0
 79 39  1  0  0  0  0
 80 39  1  0  0  0  0
 83 44  1  0  0  0  0
 88 48  1  0  0  0  0
M  END
