-1 1
 OpenBabel05232413493D

 76 76  0  0  1  0  0  0  0  0999 V2000
    7.4903    2.2479   -0.6655 C   0  0  0  0  0  0  0  0  0  0  0  0
    6.6305    1.1275   -0.1135 C   0  0  0  0  0  0  0  0  0  0  0  0
    5.6880    1.6144    0.8408 O   0  0  0  0  0  0  0  0  0  0  0  0
    4.4922    1.9881    0.3902 C   0  0  0  0  0  0  0  0  0  0  0  0
    4.2246    2.1659   -0.7747 O   0  0  0  0  0  0  0  0  0  0  0  0
    3.5545    2.1626    1.5343 C   0  0  0  0  0  0  0  0  0  0  0  0
    2.3242    1.7250    1.4421 C   0  0  0  0  0  0  0  0  0  0  0  0
    3.5521   -1.3000   -0.0146 S   0  0  0  0  0  1  0  0  0  0  0  0
    2.3618   -1.1324   -1.3913 C   0  0  0  0  0  0  0  0  0  0  0  0
    2.9862   -1.0813   -2.7804 C   0  0  2  0  0  0  0  0  0  0  0  0
    3.5802   -1.9950   -2.9535 H   0  0  0  0  0  0  0  0  0  0  0  0
    3.8898    0.0580   -2.8962 N   0  0  0  0  0  0  0  0  0  0  0  0
    4.8893    0.1303   -3.7897 C   0  0  0  0  0  0  0  0  0  0  0  0
    5.8031    1.3317   -3.6596 C   0  0  0  0  0  0  0  0  0  0  0  0
    5.0769   -0.7010   -4.6796 O   0  0  0  0  0  0  0  0  0  0  0  0
    1.8982   -1.0078   -3.8778 C   0  0  0  0  0  0  0  0  0  0  0  0
    2.3697   -1.2752   -5.1260 N   0  0  0  0  0  0  0  0  0  0  0  0
    1.5450   -1.1500   -6.2956 C   0  0  0  0  0  0  0  0  0  0  0  0
    0.7312   -0.7474   -3.6439 O   0  0  0  0  0  0  0  0  0  0  0  0
    1.1491    1.1563    1.2888 C   0  0  0  0  0  0  0  0  0  0  0  0
    0.9733   -0.2226    1.4177 N   0  0  0  0  0  0  0  0  0  0  0  0
   -0.1863   -0.8498    1.7183 C   0  0  0  0  0  0  0  0  0  0  0  0
   -1.3648    0.0270    2.1866 C   0  0  1  0  0  0  0  0  0  0  0  0
   -1.5135    0.8944    1.5253 H   0  0  0  0  0  0  0  0  0  0  0  0
   -2.5502   -0.7836    2.1226 N   0  0  0  0  0  0  0  0  0  0  0  0
   -3.7430   -0.2859    1.7345 C   0  0  0  0  0  0  0  0  0  0  0  0
   -4.6703   -1.2686    1.6872 O   0  0  0  0  0  0  0  0  0  0  0  0
   -5.9808   -0.8958    1.2824 C   0  0  0  0  0  0  0  0  0  0  0  0
   -6.1953   -1.0876   -0.1998 C   0  0  0  0  0  0  0  0  0  0  0  0
   -5.6087   -0.2087   -1.1198 C   0  0  0  0  0  0  0  0  0  0  0  0
   -5.7840   -0.4008   -2.4877 C   0  0  0  0  0  0  0  0  0  0  0  0
   -6.5550   -1.4661   -2.9550 C   0  0  0  0  0  0  0  0  0  0  0  0
   -7.1473   -2.3414   -2.0471 C   0  0  0  0  0  0  0  0  0  0  0  0
   -6.9633   -2.1528   -0.6773 C   0  0  0  0  0  0  0  0  0  0  0  0
   -3.9744    0.8761    1.4738 O   0  0  0  0  0  0  0  0  0  0  0  0
   -1.0800    0.5340    3.6224 C   0  0  0  0  0  0  0  0  0  0  0  0
   -2.2361    1.3047    4.2022 C   0  0  0  0  0  0  0  0  0  0  0  0
   -3.2331    0.6547    4.9367 C   0  0  0  0  0  0  0  0  0  0  0  0
   -4.3426    1.3532    5.4101 C   0  0  0  0  0  0  0  0  0  0  0  0
   -4.4684    2.7185    5.1601 C   0  0  0  0  0  0  0  0  0  0  0  0
   -3.4769    3.3788    4.4349 C   0  0  0  0  0  0  0  0  0  0  0  0
   -2.3730    2.6756    3.9608 C   0  0  0  0  0  0  0  0  0  0  0  0
   -0.3177   -2.0611    1.7074 O   0  0  0  0  0  0  0  0  0  0  0  0
    8.2431    1.8390   -1.3563 H   0  0  0  0  0  0  0  0  0  0  0  0
    8.0153    2.7746    0.1459 H   0  0  0  0  0  0  0  0  0  0  0  0
    6.8786    2.9756   -1.2173 H   0  0  0  0  0  0  0  0  0  0  0  0
    7.2362    0.3961    0.4377 H   0  0  0  0  0  0  0  0  0  0  0  0
    6.0840    0.5855   -0.8983 H   0  0  0  0  0  0  0  0  0  0  0  0
    3.9787    2.5017    2.4855 H   0  0  0  0  0  0  0  0  0  0  0  0
    1.7461   -0.2226   -1.2752 H   0  0  0  0  0  0  0  0  0  0  0  0
    1.6527   -1.9733   -1.3878 H   0  0  0  0  0  0  0  0  0  0  0  0
    3.8669    0.7328   -2.1308 H   0  0  0  0  0  0  0  0  0  0  0  0
    6.8154    0.9730   -3.4220 H   0  0  0  0  0  0  0  0  0  0  0  0
    5.8550    1.8372   -4.6342 H   0  0  0  0  0  0  0  0  0  0  0  0
    5.4724    2.0338   -2.8844 H   0  0  0  0  0  0  0  0  0  0  0  0
    3.3872   -1.3314   -5.2177 H   0  0  0  0  0  0  0  0  0  0  0  0
    1.8273   -0.2777   -6.9113 H   0  0  0  0  0  0  0  0  0  0  0  0
    0.5060   -1.0197   -5.9651 H   0  0  0  0  0  0  0  0  0  0  0  0
    1.6072   -2.0500   -6.9294 H   0  0  0  0  0  0  0  0  0  0  0  0
    0.2888    1.7659    0.9926 H   0  0  0  0  0  0  0  0  0  0  0  0
    1.8228   -0.8018    1.1362 H   0  0  0  0  0  0  0  0  0  0  0  0
   -2.3854   -1.7876    2.1134 H   0  0  0  0  0  0  0  0  0  0  0  0
   -6.1566    0.1519    1.5657 H   0  0  0  0  0  0  0  0  0  0  0  0
   -6.6617   -1.5435    1.8519 H   0  0  0  0  0  0  0  0  0  0  0  0
   -5.0038    0.6206   -0.7460 H   0  0  0  0  0  0  0  0  0  0  0  0
   -5.3114    0.2842   -3.1950 H   0  0  0  0  0  0  0  0  0  0  0  0
   -6.6886   -1.6162   -4.0289 H   0  0  0  0  0  0  0  0  0  0  0  0
   -7.7482   -3.1805   -2.4055 H   0  0  0  0  0  0  0  0  0  0  0  0
   -7.4198   -2.8483    0.0327 H   0  0  0  0  0  0  0  0  0  0  0  0
   -0.1749    1.1596    3.6041 H   0  0  0  0  0  0  0  0  0  0  0  0
   -0.8557   -0.3440    4.2481 H   0  0  0  0  0  0  0  0  0  0  0  0
   -3.1423   -0.4180    5.1253 H   0  0  0  0  0  0  0  0  0  0  0  0
   -5.1143    0.8266    5.9771 H   0  0  0  0  0  0  0  0  0  0  0  0
   -5.3383    3.2676    5.5281 H   0  0  0  0  0  0  0  0  0  0  0  0
   -3.5680    4.4483    4.2310 H   0  0  0  0  0  0  0  0  0  0  0  0
   -1.6051    3.1956    3.3812 H   0  0  0  0  0  0  0  0  0  0  0  0
  1  2  1  0  0  0  0
  1 45  1  0  0  0  0
  2 47  1  0  0  0  0
  2  3  1  0  0  0  0
  4  3  1  0  0  0  0
  4  6  1  0  0  0  0
  5  4  2  0  0  0  0
  6 49  1  0  0  0  0
  7  6  2  0  0  0  0
  9 51  1  0  0  0  0
  9 50  1  0  0  0  0
  9  8  1  0  0  0  0
 10 11  1  6  0  0  0
 10  9  1  0  0  0  0
 12 10  1  0  0  0  0
 12 52  1  0  0  0  0
 13 14  1  0  0  0  0
 13 12  1  0  0  0  0
 14 53  1  0  0  0  0
 14 55  1  0  0  0  0
 15 13  2  0  0  0  0
 16 19  2  0  0  0  0
 16 10  1  0  0  0  0
 17 16  1  0  0  0  0
 18 58  1  0  0  0  0
 18 17  1  0  0  0  0
 20 21  1  0  0  0  0
 20  7  2  0  0  0  0
 21 22  1  0  0  0  0
 22 23  1  0  0  0  0
 23 24  1  6  0  0  0
 23 36  1  0  0  0  0
 25 23  1  0  0  0  0
 26 25  1  0  0  0  0
 27 26  1  0  0  0  0
 28 63  1  0  0  0  0
 28 27  1  0  0  0  0
 28 64  1  0  0  0  0
 29 28  1  0  0  0  0
 30 65  1  0  0  0  0
 30 29  2  0  0  0  0
 31 30  1  0  0  0  0
 32 31  2  0  0  0  0
 32 33  1  0  0  0  0
 33 34  2  0  0  0  0
 34 29  1  0  0  0  0
 34 69  1  0  0  0  0
 35 26  2  0  0  0  0
 36 37  1  0  0  0  0
 36 71  1  0  0  0  0
 37 38  1  0  0  0  0
 38 72  1  0  0  0  0
 38 39  2  0  0  0  0
 39 73  1  0  0  0  0
 40 39  1  0  0  0  0
 40 74  1  0  0  0  0
 41 40  2  0  0  0  0
 42 37  2  0  0  0  0
 42 41  1  0  0  0  0
 43 22  2  0  0  0  0
 44  1  1  0  0  0  0
 46  1  1  0  0  0  0
 48  2  1  0  0  0  0
 54 14  1  0  0  0  0
 56 17  1  0  0  0  0
 57 18  1  0  0  0  0
 59 18  1  0  0  0  0
 60 20  1  0  0  0  0
 61 21  1  0  0  0  0
 62 25  1  0  0  0  0
 66 31  1  0  0  0  0
 67 32  1  0  0  0  0
 68 33  1  0  0  0  0
 70 36  1  0  0  0  0
 75 41  1  0  0  0  0
 76 42  1  0  0  0  0
M  END
