76
-1 1
C         7.712108    7.923115   -3.079937
C         8.254154    6.687255   -2.384139
O         7.366241    6.190605   -1.395704
C         6.320524    5.441964   -1.812932
O         6.119193    5.221771   -2.990141
C         5.527402    4.983451   -0.678893
C         4.459154    4.199257   -0.804350
S         5.307598    1.646260   -1.964926
C         4.224020    1.824791   -3.426792
C         4.966796    1.806868   -4.756683
H         5.517641    0.855612   -4.857833
N         5.945653    2.883880   -4.809475
C         7.064883    2.823768   -5.549182
C         8.093609    3.897035   -5.260504
O         7.275579    1.957923   -6.400424
C         3.990196    1.904719   -5.950493
N         4.578725    1.635890   -7.146747
C         3.876430    1.767465   -8.392534
O         2.810001    2.182197   -5.828029
C         3.204143    3.820099   -0.648284
N         2.734602    2.513175   -0.622069
C         1.480389    2.092128   -0.350822
C         0.472913    3.130628    0.177723
H         0.498880    4.060265   -0.410598
N        -0.838973    2.559378    0.039026
C        -1.914711    3.298140   -0.304465
O        -3.006815    2.510887   -0.427511
C        -4.220727    3.152613   -0.796105
C        -4.445507    3.132132   -2.289061
C        -3.707740    3.977448   -3.128194
C        -3.895831    3.939656   -4.507422
C        -4.828648    3.064902   -5.066211
C        -5.570831    2.224812   -4.238709
C        -5.375351    2.257997   -2.858062
O        -1.924108    4.499608   -0.470876
C         0.813403    3.454789    1.654333
C        -0.194590    4.374272    2.290749
C        -1.309806    3.859326    2.959555
C        -2.284038    4.707738    3.483032
C        -2.153171    6.088872    3.350242
C        -1.041607    6.614125    2.691953
C        -0.073697    5.762224    2.167156
O         1.138331    0.923895   -0.431836
H         8.461278    8.321270   -3.781285
H         7.471324    8.707299   -2.346536
H         6.803420    7.676329   -3.645723
H         9.181190    6.919881   -1.840614
H         8.471737    5.894810   -3.115361
H         5.909395    5.238862    0.314456
H         3.652679    2.767482   -3.369449
H         3.476595    1.018615   -3.457824
H         5.881990    3.591528   -4.074054
H         8.770880    3.527652   -4.474830
H         8.680357    4.082285   -6.168845
H         7.623800    4.820329   -4.898360
H         5.596234    1.523638   -7.133742
H         4.249069    2.617558   -8.990779
H         2.815590    1.939713   -8.166888
H         3.965716    0.854330   -9.004289
H         2.464469    4.623348   -0.576968
H         3.477432    1.825673   -0.915758
H        -0.864402    1.545391   -0.036205
H        -4.204491    4.186294   -0.422043
H        -5.016765    2.594613   -0.284034
H        -2.976071    4.655596   -2.682924
H        -3.306554    4.595733   -5.151853
H        -4.972290    3.035452   -6.148815
H        -6.299688    1.534112   -4.669324
H        -5.951764    1.589770   -2.211876
H         1.819044    3.899654    1.699104
H         0.857695    2.500551    2.202246
H        -1.420209    2.776334    3.056232
H        -3.151370    4.286347    3.997169
H        -2.916621    6.755790    3.757798
H        -0.931422    7.695303    2.580253
H         0.788983    6.179821    1.640424
