76
-1 1
C        -0.395048    3.082787   -3.899386
C         1.074133    2.756836   -3.690070
O         1.808938    2.799675   -4.897649
C         1.749492    1.696304   -5.695460
O         1.088135    0.725408   -5.384566
C         2.554607    1.864538   -6.888874
C         2.751205    0.855055   -7.757575
S         4.220775   -0.848732   -6.466214
C         3.825614   -2.592584   -6.820204
C         3.886737   -3.508462   -5.589030
H         4.774862   -3.215853   -4.999385
N         3.983439   -4.907117   -5.954467
C         5.020077   -5.460594   -6.612215
C         4.892831   -6.948705   -6.884748
O         5.987994   -4.827620   -7.017863
C         2.647953   -3.410768   -4.677581
N         2.194476   -2.176993   -4.428731
C         1.007606   -1.949840   -3.643207
O         2.124213   -4.431556   -4.233565
C         2.637271    0.332831   -8.966277
N         3.339532   -0.735539   -9.521239
C         3.016268   -1.241565  -10.739361
C         3.784546   -2.492698  -11.209929
H         3.291534   -2.707283  -12.167228
N         5.179618   -2.270173  -11.557940
C         6.284305   -2.229338  -10.755150
O         5.969074   -2.049972   -9.465275
C         7.062967   -1.893987   -8.545339
C         7.727106   -0.546644   -8.691410
C         8.991164   -0.425433   -9.275573
C         9.592943    0.824878   -9.408764
C         8.927696    1.969600   -8.970152
C         7.661895    1.856822   -8.394650
C         7.064678    0.605730   -8.252097
O         7.413335   -2.332284  -11.175621
C         3.542250   -3.698239  -10.281655
C         4.172116   -4.961915  -10.809749
C         3.622073   -5.628809  -11.911657
C         4.222101   -6.775272  -12.427822
C         5.387906   -7.274866  -11.845883
C         5.941944   -6.620238  -10.747344
C         5.341185   -5.470772  -10.232737
O         2.123809   -0.791625  -11.438277
H        -0.921580    3.116086   -2.932797
H        -0.866474    2.313568   -4.526425
H        -0.509186    4.060186   -4.392120
H         1.182182    1.764723   -3.224694
H         1.549090    3.502589   -3.035162
H         3.123051    2.794388   -6.981842
H         4.562628   -2.991330   -7.528938
H         2.826396   -2.670370   -7.281729
H         3.263227   -5.479115   -5.517265
H         4.611329   -7.083974   -7.940555
H         4.144949   -7.446183   -6.251716
H         5.874894   -7.417741   -6.740180
H         2.640469   -1.386950   -4.918194
H         0.614269   -0.960005   -3.903079
H         1.219598   -1.990835   -2.560443
H         0.253313   -2.720577   -3.861047
H         1.888592    0.756452   -9.641674
H         4.120180   -1.109406   -8.979855
H         5.432113   -2.454235  -12.518750
H         7.776356   -2.713149   -8.703981
H         6.594570   -1.997010   -7.559090
H         9.492130   -1.321214   -9.648524
H        10.581619    0.906713   -9.867520
H         9.396102    2.951424   -9.078912
H         7.134430    2.748195   -8.046678
H         6.080883    0.500015   -7.784079
H         2.451690   -3.822241  -10.186555
H         3.926950   -3.485872   -9.279051
H         2.704556   -5.244611  -12.368163
H         3.775700   -7.284254  -13.285836
H         5.860890   -8.174210  -12.247805
H         6.852054   -7.002771  -10.279454
H         5.774448   -4.979275   -9.356225
