-1 1
 OpenBabel05232414493D

 67 68  0  0  1  0  0  0  0  0999 V2000
    1.0500   -2.9223   -1.5482 C   0  0  0  0  0  0  0  0  0  0  0  0
   -0.1759   -2.1675   -1.1006 C   0  0  0  0  0  3  0  0  0  0  0  0
    0.4870   -1.9507    1.2352 S   0  0  0  0  0  1  0  0  0  0  0  0
    0.3364   -0.1531    1.2422 C   0  0  0  0  0  0  0  0  0  0  0  0
    1.4845    0.6052    0.5416 C   0  0  2  0  0  0  0  0  0  0  0  0
    1.5649    0.2468   -0.4901 H   0  0  0  0  0  0  0  0  0  0  0  0
    2.7621    0.3778    1.1588 N   0  0  0  0  0  0  0  0  0  0  0  0
    3.7673   -0.3115    0.5699 C   0  0  0  0  0  0  0  0  0  0  0  0
    4.9807   -0.5350    1.4566 C   0  0  0  0  0  0  0  0  0  0  0  0
    3.7222   -0.7561   -0.5643 O   0  0  0  0  0  0  0  0  0  0  0  0
    1.1726    2.1035    0.5617 C   0  0  0  0  0  0  0  0  0  0  0  0
    0.2960    2.5229   -0.3732 N   0  0  0  0  0  0  0  0  0  0  0  0
   -0.2039    3.8724   -0.3806 C   0  0  0  0  0  0  0  0  0  0  0  0
    1.6464    2.8404    1.4188 O   0  0  0  0  0  0  0  0  0  0  0  0
   -0.4122   -0.9102   -1.6495 C   0  0  0  0  0  3  0  0  0  0  0  0
   -1.5558   -0.0551   -1.7217 C   0  0  0  0  0  0  0  0  0  0  0  0
   -2.8799   -0.4324   -1.4255 N   0  0  0  0  0  0  0  0  0  0  0  0
   -3.4986   -1.4385   -0.6918 C   0  0  0  0  0  0  0  0  0  0  0  0
   -4.7853   -1.8495   -1.0894 C   0  0  0  0  0  0  0  0  0  0  0  0
   -5.5022   -2.8009   -0.3672 C   0  0  0  0  0  0  0  0  0  0  0  0
   -6.8844   -3.2131   -0.8149 C   0  0  0  0  0  0  0  0  0  0  0  0
   -6.9368   -4.6536   -1.0028 N   0  0  0  0  0  0  0  0  0  0  0  0
   -7.9945   -5.4686   -0.8581 C   0  0  0  0  0  0  0  0  0  0  0  0
   -9.3456   -5.0974   -0.8128 C   0  0  0  0  0  0  0  0  0  0  0  0
   -9.8528   -3.7543   -1.2196 C   0  0  0  0  0  0  0  0  0  0  0  0
  -10.9112   -3.2893   -0.4802 N   0  0  0  0  0  0  0  0  0  0  0  0
   -9.4249   -3.1317   -2.1732 O   0  0  0  0  0  0  0  0  0  0  0  0
  -10.3091   -6.1199   -0.5447 C   0  0  0  0  0  0  0  0  0  0  0  0
  -10.0817   -7.3860   -0.3684 N   0  0  0  0  0  0  0  0  0  0  0  0
   -7.7159   -6.8685   -0.6716 C   0  0  0  0  0  0  0  0  0  0  0  0
   -8.7779   -7.7319   -0.4475 N   0  0  0  0  0  0  0  0  0  0  0  0
   -8.3115   -8.9991   -0.2835 C   0  0  0  0  0  0  0  0  0  0  0  0
   -6.9321   -8.9622   -0.4030 C   0  0  0  0  0  0  0  0  0  0  0  0
   -6.5488   -7.6258   -0.6408 C   0  0  0  0  0  0  0  0  0  0  0  0
   -4.9219   -3.3851    0.7656 C   0  0  0  0  0  0  0  0  0  0  0  0
   -3.6457   -2.9886    1.1597 C   0  0  0  0  0  0  0  0  0  0  0  0
   -2.9419   -2.0135    0.4595 C   0  0  0  0  0  0  0  0  0  0  0  0
   -1.4567    1.1089   -2.1599 O   0  0  0  0  0  0  0  0  0  0  0  0
    1.2351   -3.8015   -0.9159 H   0  0  0  0  0  0  0  0  0  0  0  0
    1.9422   -2.2802   -1.5038 H   0  0  0  0  0  0  0  0  0  0  0  0
    0.9083   -3.2623   -2.5904 H   0  0  0  0  0  0  0  0  0  0  0  0
   -1.0263   -2.7929   -0.8268 H   0  0  0  0  0  0  0  0  0  0  0  0
    0.2525    0.2100    2.2801 H   0  0  0  0  0  0  0  0  0  0  0  0
   -0.5987    0.1387    0.7318 H   0  0  0  0  0  0  0  0  0  0  0  0
    2.9104    0.8297    2.0517 H   0  0  0  0  0  0  0  0  0  0  0  0
    5.0988    0.2395    2.2284 H   0  0  0  0  0  0  0  0  0  0  0  0
    5.8788   -0.5745    0.8275 H   0  0  0  0  0  0  0  0  0  0  0  0
    4.8648   -1.5090    1.9556 H   0  0  0  0  0  0  0  0  0  0  0  0
   -0.1133    1.8807   -1.0625 H   0  0  0  0  0  0  0  0  0  0  0  0
    0.5083    4.5806   -0.8395 H   0  0  0  0  0  0  0  0  0  0  0  0
   -0.3950    4.2186    0.6465 H   0  0  0  0  0  0  0  0  0  0  0  0
   -1.1391    3.8925   -0.9559 H   0  0  0  0  0  0  0  0  0  0  0  0
    0.4567   -0.3995   -2.0745 H   0  0  0  0  0  0  0  0  0  0  0  0
   -3.5036    0.2678   -1.8105 H   0  0  0  0  0  0  0  0  0  0  0  0
   -5.2225   -1.4159   -1.9934 H   0  0  0  0  0  0  0  0  0  0  0  0
   -7.1845   -2.6872   -1.7325 H   0  0  0  0  0  0  0  0  0  0  0  0
   -7.6251   -2.9416   -0.0421 H   0  0  0  0  0  0  0  0  0  0  0  0
   -6.0307   -5.1024   -1.0484 H   0  0  0  0  0  0  0  0  0  0  0  0
  -11.0764   -3.6345    0.4545 H   0  0  0  0  0  0  0  0  0  0  0  0
  -11.2580   -2.3686   -0.7173 H   0  0  0  0  0  0  0  0  0  0  0  0
  -11.3675   -5.8445   -0.5143 H   0  0  0  0  0  0  0  0  0  0  0  0
   -9.0071   -9.8107   -0.0912 H   0  0  0  0  0  0  0  0  0  0  0  0
   -6.2675   -9.8194   -0.3219 H   0  0  0  0  0  0  0  0  0  0  0  0
   -5.5331   -7.2589   -0.7746 H   0  0  0  0  0  0  0  0  0  0  0  0
   -5.4711   -4.1380    1.3383 H   0  0  0  0  0  0  0  0  0  0  0  0
   -3.1803   -3.4261    2.0463 H   0  0  0  0  0  0  0  0  0  0  0  0
   -1.9491   -1.7260    0.8169 H   0  0  0  0  0  0  0  0  0  0  0  0
  1 40  1  0  0  0  0
  1  2  1  0  0  0  0
  1 39  1  0  0  0  0
  2 42  1  0  0  0  0
  3  4  1  0  0  0  0
  4 43  1  0  0  0  0
  5  6  1  6  0  0  0
  5 11  1  0  0  0  0
  5  7  1  0  0  0  0
  5  4  1  0  0  0  0
  7 45  1  0  0  0  0
  8  7  1  0  0  0  0
  8  9  1  0  0  0  0
  9 48  1  0  0  0  0
  9 46  1  0  0  0  0
 10  8  2  0  0  0  0
 11 14  2  0  0  0  0
 12 11  1  0  0  0  0
 13 12  1  0  0  0  0
 13 51  1  0  0  0  0
 15  2  1  0  0  0  0
 16 15  1  0  0  0  0
 16 17  1  0  0  0  0
 17 18  1  0  0  0  0
 18 37  1  0  0  0  0
 19 18  2  0  0  0  0
 19 20  1  0  0  0  0
 20 35  2  0  0  0  0
 21 20  1  0  0  0  0
 21 57  1  0  0  0  0
 22 23  1  0  0  0  0
 22 21  1  0  0  0  0
 23 24  2  0  0  0  0
 23 30  1  0  0  0  0
 24 28  1  0  0  0  0
 25 24  1  0  0  0  0
 25 26  1  0  0  0  0
 26 59  1  0  0  0  0
 27 25  2  0  0  0  0
 28 61  1  0  0  0  0
 28 29  2  0  0  0  0
 30 34  2  0  0  0  0
 30 31  1  0  0  0  0
 31 29  1  0  0  0  0
 31 32  1  0  0  0  0
 32 62  1  0  0  0  0
 33 63  1  0  0  0  0
 33 32  2  0  0  0  0
 34 33  1  0  0  0  0
 35 36  1  0  0  0  0
 35 65  1  0  0  0  0
 36 66  1  0  0  0  0
 37 67  1  0  0  0  0
 37 36  2  0  0  0  0
 38 16  2  0  0  0  0
 41  1  1  0  0  0  0
 44  4  1  0  0  0  0
 47  9  1  0  0  0  0
 49 12  1  0  0  0  0
 50 13  1  0  0  0  0
 52 13  1  0  0  0  0
 53 15  1  0  0  0  0
 54 17  1  0  0  0  0
 55 19  1  0  0  0  0
 56 21  1  0  0  0  0
 58 22  1  0  0  0  0
 60 26  1  0  0  0  0
 64 34  1  0  0  0  0
M  END
