67
-1 1
C         1.049982   -2.922346   -1.548201
C        -0.175868   -2.167461   -1.100581
S         0.487050   -1.950721    1.235170
C         0.336384   -0.153104    1.242181
C         1.484545    0.605242    0.541630
H         1.564888    0.246825   -0.490076
N         2.762137    0.377847    1.158804
C         3.767296   -0.311453    0.569936
C         4.980656   -0.534966    1.456578
O         3.722219   -0.756061   -0.564251
C         1.172623    2.103461    0.561727
N         0.295979    2.522918   -0.373162
C        -0.203908    3.872375   -0.380643
O         1.646351    2.840424    1.418813
C        -0.412168   -0.910150   -1.649535
C        -1.555811   -0.055132   -1.721684
N        -2.879948   -0.432426   -1.425544
C        -3.498622   -1.438487   -0.691753
C        -4.785275   -1.849534   -1.089411
C        -5.502214   -2.800914   -0.367179
C        -6.884418   -3.213131   -0.814945
N        -6.936781   -4.653622   -1.002808
C        -7.994474   -5.468623   -0.858060
C        -9.345612   -5.097364   -0.812811
C        -9.852822   -3.754274   -1.219606
N       -10.911175   -3.289264   -0.480247
O        -9.424911   -3.131679   -2.173228
C       -10.309069   -6.119900   -0.544713
N       -10.081653   -7.385989   -0.368409
C        -7.715919   -6.868505   -0.671571
N        -8.777928   -7.731872   -0.447487
C        -8.311512   -8.999050   -0.283462
C        -6.932052   -8.962238   -0.403032
C        -6.548773   -7.625767   -0.640755
C        -4.921898   -3.385117    0.765589
C        -3.645678   -2.988581    1.159684
C        -2.941911   -2.013450    0.459477
O        -1.456729    1.108874   -2.159885
H         1.235097   -3.801499   -0.915928
H         1.942157   -2.280171   -1.503841
H         0.908275   -3.262301   -2.590389
H        -1.026254   -2.792881   -0.826757
H         0.252525    0.209998    2.280091
H        -0.598739    0.138721    0.731761
H         2.910365    0.829750    2.051673
H         5.098835    0.239519    2.228449
H         5.878750   -0.574476    0.827519
H         4.864831   -1.509010    1.955588
H        -0.113310    1.880665   -1.062489
H         0.508271    4.580639   -0.839489
H        -0.394951    4.218569    0.646538
H        -1.139108    3.892536   -0.955911
H         0.456677   -0.399521   -2.074530
H        -3.503568    0.267847   -1.810526
H        -5.222536   -1.415866   -1.993449
H        -7.184522   -2.687173   -1.732492
H        -7.625093   -2.941611   -0.042127
H        -6.030654   -5.102352   -1.048405
H       -11.076436   -3.634492    0.454521
H       -11.258012   -2.368577   -0.717298
H       -11.367543   -5.844486   -0.514334
H        -9.007056   -9.810718   -0.091183
H        -6.267458   -9.819367   -0.321877
H        -5.533101   -7.258874   -0.774646
H        -5.471087   -4.137951    1.338309
H        -3.180257   -3.426111    2.046250
H        -1.949067   -1.726009    0.816933
