-1 1
 OpenBabel05232413493D

 67 68  0  0  1  0  0  0  0  0999 V2000
    2.9001   -0.4030   -1.9859 C   0  0  0  0  0  0  0  0  0  0  0  0
    1.9312    0.7238   -1.8152 C   0  0  0  0  0  0  0  0  0  0  0  0
    2.2116    2.6234    3.7484 S   0  0  0  0  0  1  0  0  0  0  0  0
    3.3200    3.7546    2.8313 C   0  0  0  0  0  0  0  0  0  0  0  0
    3.8429    3.1475    1.5127 C   0  0  2  0  0  0  0  0  0  0  0  0
    2.9925    3.0736    0.8150 H   0  0  0  0  0  0  0  0  0  0  0  0
    4.3531    1.8292    1.7948 N   0  0  0  0  0  0  0  0  0  0  0  0
    4.9193    1.0233    0.8877 C   0  0  0  0  0  0  0  0  0  0  0  0
    5.2306   -0.3818    1.3703 C   0  0  0  0  0  0  0  0  0  0  0  0
    5.1655    1.3553   -0.2706 O   0  0  0  0  0  0  0  0  0  0  0  0
    4.9177    4.0467    0.8963 C   0  0  0  0  0  0  0  0  0  0  0  0
    4.4863    4.7774   -0.1675 N   0  0  0  0  0  0  0  0  0  0  0  0
    5.3564    5.6845   -0.8638 C   0  0  0  0  0  0  0  0  0  0  0  0
    6.0340    4.1470    1.3724 O   0  0  0  0  0  0  0  0  0  0  0  0
    2.2920    1.9584   -1.4480 C   0  0  0  0  0  0  0  0  0  0  0  0
    1.3863    3.1274   -1.3140 C   0  0  0  0  0  0  0  0  0  0  0  0
    0.0617    2.9279   -1.0037 N   0  0  0  0  0  0  0  0  0  0  0  0
   -0.4759    1.8632   -0.2233 C   0  0  0  0  0  0  0  0  0  0  0  0
   -1.5774    1.1518   -0.7095 C   0  0  0  0  0  0  0  0  0  0  0  0
   -2.1390    0.1155    0.0371 C   0  0  0  0  0  0  0  0  0  0  0  0
   -3.3198   -0.6601   -0.4940 C   0  0  0  0  0  0  0  0  0  0  0  0
   -2.9687   -2.0645   -0.6294 N   0  0  0  0  0  0  0  0  0  0  0  0
   -3.7849   -3.1309   -0.5670 C   0  0  0  0  0  0  0  0  0  0  0  0
   -5.1824   -3.1314   -0.6712 C   0  0  0  0  0  0  0  0  0  0  0  0
   -5.9820   -1.9719   -1.1643 C   0  0  0  0  0  0  0  0  0  0  0  0
   -7.1953   -1.8042   -0.5477 N   0  0  0  0  0  0  0  0  0  0  0  0
   -5.6369   -1.2585   -2.0879 O   0  0  0  0  0  0  0  0  0  0  0  0
   -5.8645   -4.3734   -0.4727 C   0  0  0  0  0  0  0  0  0  0  0  0
   -5.3303   -5.5327   -0.2366 N   0  0  0  0  0  0  0  0  0  0  0  0
   -3.1677   -4.4051   -0.3100 C   0  0  0  0  0  0  0  0  0  0  0  0
   -3.9812   -5.5198   -0.1705 N   0  0  0  0  0  0  0  0  0  0  0  0
   -3.2167   -6.6169    0.0779 C   0  0  0  0  0  0  0  0  0  0  0  0
   -1.8915   -6.2146    0.0994 C   0  0  0  0  0  0  0  0  0  0  0  0
   -1.8521   -4.8248   -0.1374 C   0  0  0  0  0  0  0  0  0  0  0  0
   -1.5748   -0.2113    1.2781 C   0  0  0  0  0  0  0  0  0  0  0  0
   -0.4820    0.5014    1.7628 C   0  0  0  0  0  0  0  0  0  0  0  0
    0.0672    1.5456    1.0216 C   0  0  0  0  0  0  0  0  0  0  0  0
    1.8014    4.2622   -1.5122 O   0  0  0  0  0  0  0  0  0  0  0  0
    2.5993   -1.2588   -1.3583 H   0  0  0  0  0  0  0  0  0  0  0  0
    3.9156   -0.0924   -1.6997 H   0  0  0  0  0  0  0  0  0  0  0  0
    2.9052   -0.7632   -3.0283 H   0  0  0  0  0  0  0  0  0  0  0  0
    0.8749    0.4999   -2.0039 H   0  0  0  0  0  0  0  0  0  0  0  0
    4.1984    4.0155    3.4435 H   0  0  0  0  0  0  0  0  0  0  0  0
    2.8079    4.6955    2.5750 H   0  0  0  0  0  0  0  0  0  0  0  0
    3.9740    1.4606    2.6760 H   0  0  0  0  0  0  0  0  0  0  0  0
    5.1617   -0.4889    2.4612 H   0  0  0  0  0  0  0  0  0  0  0  0
    6.2399   -0.6529    1.0327 H   0  0  0  0  0  0  0  0  0  0  0  0
    4.5208   -1.0780    0.8979 H   0  0  0  0  0  0  0  0  0  0  0  0
    3.5727    4.5875   -0.5756 H   0  0  0  0  0  0  0  0  0  0  0  0
    5.5995    5.3215   -1.8770 H   0  0  0  0  0  0  0  0  0  0  0  0
    6.2886    5.7623   -0.2891 H   0  0  0  0  0  0  0  0  0  0  0  0
    4.9037    6.6856   -0.9550 H   0  0  0  0  0  0  0  0  0  0  0  0
    3.3504    2.1812   -1.2748 H   0  0  0  0  0  0  0  0  0  0  0  0
   -0.4503    3.8049   -0.9730 H   0  0  0  0  0  0  0  0  0  0  0  0
   -1.9849    1.4090   -1.6908 H   0  0  0  0  0  0  0  0  0  0  0  0
   -3.6714   -0.2510   -1.4519 H   0  0  0  0  0  0  0  0  0  0  0  0
   -4.1680   -0.5839    0.2090 H   0  0  0  0  0  0  0  0  0  0  0  0
   -1.9776   -2.2588   -0.5661 H   0  0  0  0  0  0  0  0  0  0  0  0
   -7.3646   -2.1867    0.3717 H   0  0  0  0  0  0  0  0  0  0  0  0
   -7.7509   -1.0132   -0.8469 H   0  0  0  0  0  0  0  0  0  0  0  0
   -6.9551   -4.3897   -0.5591 H   0  0  0  0  0  0  0  0  0  0  0  0
   -3.6890   -7.5842    0.2225 H   0  0  0  0  0  0  0  0  0  0  0  0
   -1.0367   -6.8637    0.2747 H   0  0  0  0  0  0  0  0  0  0  0  0
   -0.9606   -4.2019   -0.1762 H   0  0  0  0  0  0  0  0  0  0  0  0
   -2.0067   -1.0237    1.8704 H   0  0  0  0  0  0  0  0  0  0  0  0
   -0.0437    0.2824    2.7394 H   0  0  0  0  0  0  0  0  0  0  0  0
    0.9023    2.1034    1.4666 H   0  0  0  0  0  0  0  0  0  0  0  0
  1  2  1  0  0  0  0
  1 40  1  0  0  0  0
  1 39  1  0  0  0  0
  2 15  2  0  0  0  0
  4 43  1  0  0  0  0
  4  3  1  0  0  0  0
  5  6  1  6  0  0  0
  5  7  1  0  0  0  0
  5  4  1  0  0  0  0
  7 45  1  0  0  0  0
  8  9  1  0  0  0  0
  8  7  1  0  0  0  0
  9 46  1  0  0  0  0
 10  8  2  0  0  0  0
 11 14  2  0  0  0  0
 11  5  1  0  0  0  0
 12 11  1  0  0  0  0
 13 51  1  0  0  0  0
 13 12  1  0  0  0  0
 15 16  1  0  0  0  0
 15 53  1  0  0  0  0
 16 17  1  0  0  0  0
 17 54  1  0  0  0  0
 17 18  1  0  0  0  0
 18 37  1  0  0  0  0
 19 18  2  0  0  0  0
 19 20  1  0  0  0  0
 20 35  2  0  0  0  0
 21 20  1  0  0  0  0
 21 57  1  0  0  0  0
 22 23  1  0  0  0  0
 22 58  1  0  0  0  0
 22 21  1  0  0  0  0
 23 30  1  0  0  0  0
 24 23  2  0  0  0  0
 24 28  1  0  0  0  0
 25 24  1  0  0  0  0
 25 26  1  0  0  0  0
 26 59  1  0  0  0  0
 27 25  2  0  0  0  0
 28 29  2  0  0  0  0
 29 31  1  0  0  0  0
 30 31  1  0  0  0  0
 30 34  2  0  0  0  0
 31 32  1  0  0  0  0
 32 33  2  0  0  0  0
 32 62  1  0  0  0  0
 33 63  1  0  0  0  0
 34 33  1  0  0  0  0
 35 36  1  0  0  0  0
 35 65  1  0  0  0  0
 36 66  1  0  0  0  0
 37 67  1  0  0  0  0
 37 36  2  0  0  0  0
 38 16  2  0  0  0  0
 41  1  1  0  0  0  0
 42  2  1  0  0  0  0
 44  4  1  0  0  0  0
 47  9  1  0  0  0  0
 48  9  1  0  0  0  0
 49 12  1  0  0  0  0
 50 13  1  0  0  0  0
 52 13  1  0  0  0  0
 55 19  1  0  0  0  0
 56 21  1  0  0  0  0
 60 26  1  0  0  0  0
 61 28  1  0  0  0  0
 64 34  1  0  0  0  0
M  END
