-1 1
 OpenBabel05232413493D

 72 73  0  0  1  0  0  0  0  0999 V2000
    3.3741   -4.3498   -1.0113 O   0  0  0  0  0  0  0  0  0  0  0  0
    2.7272   -3.6297   -1.7636 C   0  0  0  0  0  0  0  0  0  0  0  0
    1.5309   -3.1142   -1.3730 N   0  0  0  0  0  0  0  0  0  0  0  0
    0.6520   -2.2377   -2.0785 C   0  0  0  0  0  0  0  0  0  0  0  0
    0.8831   -0.8632   -2.0736 C   0  0  0  0  0  0  0  0  0  0  0  0
   -0.0308    0.0026   -2.6742 C   0  0  0  0  0  0  0  0  0  0  0  0
    0.2213    1.4997   -2.6177 C   0  0  0  0  0  0  0  0  0  0  0  0
   -0.9742    2.3009   -2.5487 N   0  0  0  0  0  0  0  0  0  0  0  0
   -1.8151    2.3183   -1.4884 C   0  0  0  0  0  0  0  0  0  0  0  0
   -2.9874    3.1502   -1.4957 C   0  0  0  0  0  0  0  0  0  0  0  0
   -3.3072    4.0193   -2.6481 C   0  0  0  0  0  0  0  0  0  0  0  0
   -4.2515    4.9935   -2.4503 N   0  0  0  0  0  0  0  0  0  0  0  0
   -2.7822    3.9020   -3.7527 O   0  0  0  0  0  0  0  0  0  0  0  0
   -3.8151    3.0772   -0.3745 C   0  0  0  0  0  0  0  0  0  0  0  0
   -3.6019    2.3548    0.7121 N   0  0  0  0  0  0  0  0  0  0  0  0
   -2.4826    1.6084    0.7427 C   0  0  0  0  0  0  0  0  0  0  0  0
   -2.1829    0.8667    1.8498 N   0  0  0  0  0  0  0  0  0  0  0  0
   -2.8046    0.7716    3.0935 C   0  0  0  0  0  0  0  0  0  0  0  0
   -4.0400    1.3505    3.4299 C   0  0  0  0  0  0  0  0  0  0  0  0
   -4.5591    1.1795    4.7129 C   0  0  0  0  0  0  0  0  0  0  0  0
   -3.8798    0.4425    5.6804 C   0  0  0  0  0  0  0  0  0  0  0  0
   -2.6525   -0.1337    5.3462 C   0  0  0  0  0  0  0  0  0  0  0  0
   -2.1185    0.0257    4.0741 C   0  0  0  0  0  0  0  0  0  0  0  0
   -1.5853    1.5516   -0.3408 C   0  0  0  0  0  0  0  0  0  0  0  0
   -1.1705   -0.5201   -3.2895 C   0  0  0  0  0  0  0  0  0  0  0  0
   -1.3914   -1.8955   -3.3095 C   0  0  0  0  0  0  0  0  0  0  0  0
   -0.4834   -2.7591   -2.7002 C   0  0  0  0  0  0  0  0  0  0  0  0
    3.2237   -3.3262   -3.1414 C   0  0  0  0  0  0  0  0  0  0  0  0
    3.6572   -2.1283   -3.5325 C   0  0  0  0  0  0  0  0  0  0  0  0
    4.1709    0.5284   -0.9758 S   0  0  0  0  0  1  0  0  0  0  0  0
    4.2286   -0.8825    0.1859 C   0  0  0  0  0  0  0  0  0  0  0  0
    2.9384   -1.0343    1.0238 C   0  0  2  0  0  0  0  0  0  0  0  0
    2.1329   -1.4087    0.3754 H   0  0  0  0  0  0  0  0  0  0  0  0
    2.5427    0.2523    1.5321 N   0  0  0  0  0  0  0  0  0  0  0  0
    1.2767    0.5411    1.8359 C   0  0  0  0  0  0  0  0  0  0  0  0
    0.9827    1.9815    2.1917 C   0  0  0  0  0  0  0  0  0  0  0  0
    0.3751   -0.3079    1.8099 O   0  0  0  0  0  0  0  0  0  0  0  0
    3.1068   -2.0412    2.1705 C   0  0  0  0  0  0  0  0  0  0  0  0
    3.2182   -3.3355    1.7643 N   0  0  0  0  0  0  0  0  0  0  0  0
    3.4564   -4.3857    2.7197 C   0  0  0  0  0  0  0  0  0  0  0  0
    3.1321   -1.7201    3.3440 O   0  0  0  0  0  0  0  0  0  0  0  0
    1.2702   -3.3555   -0.4195 H   0  0  0  0  0  0  0  0  0  0  0  0
    1.7861   -0.4536   -1.5984 H   0  0  0  0  0  0  0  0  0  0  0  0
    0.7741    1.8103   -3.5173 H   0  0  0  0  0  0  0  0  0  0  0  0
    0.8944    1.7144   -1.7695 H   0  0  0  0  0  0  0  0  0  0  0  0
   -1.2972    2.8243   -3.3585 H   0  0  0  0  0  0  0  0  0  0  0  0
   -4.4577    5.3316   -1.5221 H   0  0  0  0  0  0  0  0  0  0  0  0
   -4.3745    5.6376   -3.2202 H   0  0  0  0  0  0  0  0  0  0  0  0
   -4.7558    3.6423   -0.3716 H   0  0  0  0  0  0  0  0  0  0  0  0
   -1.2834    0.3621    1.7983 H   0  0  0  0  0  0  0  0  0  0  0  0
   -4.5695    1.9290    2.6775 H   0  0  0  0  0  0  0  0  0  0  0  0
   -5.5221    1.6378    4.9548 H   0  0  0  0  0  0  0  0  0  0  0  0
   -4.2988    0.3173    6.6814 H   0  0  0  0  0  0  0  0  0  0  0  0
   -2.0977   -0.7164    6.0859 H   0  0  0  0  0  0  0  0  0  0  0  0
   -1.1573   -0.4255    3.8133 H   0  0  0  0  0  0  0  0  0  0  0  0
   -0.7314    0.8784   -0.2779 H   0  0  0  0  0  0  0  0  0  0  0  0
   -1.8997    0.1618   -3.7346 H   0  0  0  0  0  0  0  0  0  0  0  0
   -2.2865   -2.2975   -3.7898 H   0  0  0  0  0  0  0  0  0  0  0  0
   -0.6521   -3.8380   -2.6884 H   0  0  0  0  0  0  0  0  0  0  0  0
    3.3218   -4.2073   -3.7849 H   0  0  0  0  0  0  0  0  0  0  0  0
    3.6482   -1.2431   -2.8771 H   0  0  0  0  0  0  0  0  0  0  0  0
    4.0963   -2.0059   -4.5270 H   0  0  0  0  0  0  0  0  0  0  0  0
    5.0790   -0.7696    0.8804 H   0  0  0  0  0  0  0  0  0  0  0  0
    4.3927   -1.8314   -0.3500 H   0  0  0  0  0  0  0  0  0  0  0  0
    3.1668    1.0124    1.2553 H   0  0  0  0  0  0  0  0  0  0  0  0
    1.8943    2.5777    2.3260 H   0  0  0  0  0  0  0  0  0  0  0  0
    0.3878    2.0063    3.1153 H   0  0  0  0  0  0  0  0  0  0  0  0
    0.3752    2.4309    1.3914 H   0  0  0  0  0  0  0  0  0  0  0  0
    3.3377   -3.5719    0.7785 H   0  0  0  0  0  0  0  0  0  0  0  0
    4.5047   -4.4127    3.0673 H   0  0  0  0  0  0  0  0  0  0  0  0
    3.2180   -5.3538    2.2577 H   0  0  0  0  0  0  0  0  0  0  0  0
    2.8210   -4.2370    3.6043 H   0  0  0  0  0  0  0  0  0  0  0  0
  2  3  1  0  0  0  0
  2  1  2  0  0  0  0
  3 42  1  0  0  0  0
  4  5  1  0  0  0  0
  4  3  1  0  0  0  0
  5 43  1  0  0  0  0
  6  7  1  0  0  0  0
  6  5  2  0  0  0  0
  7  8  1  0  0  0  0
  7 45  1  0  0  0  0
  8  9  1  0  0  0  0
  9 24  1  0  0  0  0
 10  9  2  0  0  0  0
 10 14  1  0  0  0  0
 11 12  1  0  0  0  0
 11 10  1  0  0  0  0
 12 47  1  0  0  0  0
 13 11  2  0  0  0  0
 14 49  1  0  0  0  0
 14 15  2  0  0  0  0
 15 16  1  0  0  0  0
 16 17  1  0  0  0  0
 17 18  1  0  0  0  0
 18 19  2  0  0  0  0
 18 23  1  0  0  0  0
 19 20  1  0  0  0  0
 20 52  1  0  0  0  0
 20 21  2  0  0  0  0
 21 53  1  0  0  0  0
 22 21  1  0  0  0  0
 22 54  1  0  0  0  0
 23 22  2  0  0  0  0
 24 56  1  0  0  0  0
 24 16  2  0  0  0  0
 25  6  1  0  0  0  0
 26 25  2  0  0  0  0
 26 27  1  0  0  0  0
 27 59  1  0  0  0  0
 27  4  2  0  0  0  0
 28  2  1  0  0  0  0
 29 28  2  0  0  0  0
 29 61  1  0  0  0  0
 30 31  1  0  0  0  0
 31 63  1  0  0  0  0
 31 32  1  0  0  0  0
 32 33  1  6  0  0  0
 32 34  1  0  0  0  0
 32 38  1  0  0  0  0
 34 35  1  0  0  0  0
 35 36  1  0  0  0  0
 36 66  1  0  0  0  0
 36 67  1  0  0  0  0
 37 35  2  0  0  0  0
 38 41  2  0  0  0  0
 39 38  1  0  0  0  0
 39 40  1  0  0  0  0
 40 70  1  0  0  0  0
 40 72  1  0  0  0  0
 44  7  1  0  0  0  0
 46  8  1  0  0  0  0
 48 12  1  0  0  0  0
 50 17  1  0  0  0  0
 51 19  1  0  0  0  0
 55 23  1  0  0  0  0
 57 25  1  0  0  0  0
 58 26  1  0  0  0  0
 60 28  1  0  0  0  0
 62 29  1  0  0  0  0
 64 31  1  0  0  0  0
 65 34  1  0  0  0  0
 68 36  1  0  0  0  0
 69 39  1  0  0  0  0
 71 40  1  0  0  0  0
M  END
