-1 1
 OpenBabel05232414493D

 65 66  0  0  1  0  0  0  0  0999 V2000
    2.2787    1.2557    9.3830 O   0  0  0  0  0  0  0  0  0  0  0  0
    2.4975    0.0022    8.6579 S   0  0  0  0  0  0  0  0  0  0  0  0
    2.2461    0.1339    6.9653 C   0  0  0  0  0  3  0  0  0  0  0  0
    1.4910   -0.7710    6.2705 C   0  0  0  0  0  3  0  0  0  0  0  0
   -0.8250    0.1467    5.7534 S   0  0  0  0  0  1  0  0  0  0  0  0
   -1.8075   -1.0744    4.8158 C   0  0  0  0  0  0  0  0  0  0  0  0
   -0.9872   -1.9519    3.8429 C   0  0  2  0  0  0  0  0  0  0  0  0
   -0.4865   -2.7492    4.4147 H   0  0  0  0  0  0  0  0  0  0  0  0
    0.0215   -1.1496    3.1944 N   0  0  0  0  0  0  0  0  0  0  0  0
    0.9900   -1.6823    2.4452 C   0  0  0  0  0  0  0  0  0  0  0  0
    2.0847   -0.7435    1.9877 C   0  0  0  0  0  0  0  0  0  0  0  0
    1.0171   -2.8799    2.1468 O   0  0  0  0  0  0  0  0  0  0  0  0
   -1.9315   -2.5708    2.8026 C   0  0  0  0  0  0  0  0  0  0  0  0
   -2.2982   -3.8502    3.0680 N   0  0  0  0  0  0  0  0  0  0  0  0
   -3.1855   -4.5644    2.1894 C   0  0  0  0  0  0  0  0  0  0  0  0
   -2.3716   -1.9227    1.8704 O   0  0  0  0  0  0  0  0  0  0  0  0
    4.1941   -0.1510    8.8255 N   0  0  0  0  0  0  0  0  0  0  0  0
    5.0202   -1.0453    8.1614 C   0  0  0  0  0  0  0  0  0  0  0  0
    4.4985   -2.1408    7.4590 C   0  0  0  0  0  0  0  0  0  0  0  0
    5.3316   -3.0112    6.7582 C   0  0  0  0  0  0  0  0  0  0  0  0
    4.7208   -4.1084    5.9124 C   0  0  0  0  0  0  0  0  0  0  0  0
    3.4830   -4.5857    6.4866 N   0  0  0  0  0  0  0  0  0  0  0  0
    2.3132   -4.8135    5.8464 C   0  0  0  0  0  0  0  0  0  0  0  0
    2.1423   -5.1264    4.4975 C   0  0  0  0  0  0  0  0  0  0  0  0
    3.2676   -5.3823    3.5390 C   0  0  0  0  0  0  0  0  0  0  0  0
    3.0942   -4.8105    2.3215 N   0  0  0  0  0  0  0  0  0  0  0  0
    4.2374   -6.0712    3.8197 O   0  0  0  0  0  0  0  0  0  0  0  0
    0.8130   -5.3233    4.0263 C   0  0  0  0  0  0  0  0  0  0  0  0
   -0.2795   -5.2502    4.7290 N   0  0  0  0  0  0  0  0  0  0  0  0
    1.1189   -4.6536    6.6276 C   0  0  0  0  0  0  0  0  0  0  0  0
   -0.1046   -4.8879    6.0178 N   0  0  0  0  0  0  0  0  0  0  0  0
   -1.1125   -4.5971    6.8834 C   0  0  0  0  0  0  0  0  0  0  0  0
   -0.5390   -4.1645    8.0680 C   0  0  0  0  0  0  0  0  0  0  0  0
    0.8614   -4.1969    7.9176 C   0  0  0  0  0  0  0  0  0  0  0  0
    6.7159   -2.8212    6.7857 C   0  0  0  0  0  0  0  0  0  0  0  0
    7.2432   -1.7464    7.4999 C   0  0  0  0  0  0  0  0  0  0  0  0
    6.4122   -0.8584    8.1758 C   0  0  0  0  0  0  0  0  0  0  0  0
    1.9044   -1.2385    9.1556 O   0  0  0  0  0  0  0  0  0  0  0  0
    2.7138    1.0155    6.5252 H   0  0  0  0  0  0  0  0  0  0  0  0
    1.1088   -1.6633    6.7716 H   0  0  0  0  0  0  0  0  0  0  0  0
    1.5858   -0.8193    5.1893 H   0  0  0  0  0  0  0  0  0  0  0  0
   -2.5653   -0.5313    4.2293 H   0  0  0  0  0  0  0  0  0  0  0  0
   -2.3409   -1.7588    5.4928 H   0  0  0  0  0  0  0  0  0  0  0  0
    0.0788   -0.1935    3.5604 H   0  0  0  0  0  0  0  0  0  0  0  0
    1.9132    0.2990    2.2863 H   0  0  0  0  0  0  0  0  0  0  0  0
    2.1678   -0.8021    0.8936 H   0  0  0  0  0  0  0  0  0  0  0  0
    3.0374   -1.0904    2.4147 H   0  0  0  0  0  0  0  0  0  0  0  0
   -1.7317   -4.3893    3.7263 H   0  0  0  0  0  0  0  0  0  0  0  0
   -3.8573   -3.8450    1.7028 H   0  0  0  0  0  0  0  0  0  0  0  0
   -3.7828   -5.2915    2.7598 H   0  0  0  0  0  0  0  0  0  0  0  0
   -2.6440   -5.1073    1.3939 H   0  0  0  0  0  0  0  0  0  0  0  0
    4.6054    0.6798    9.2341 H   0  0  0  0  0  0  0  0  0  0  0  0
    3.4228   -2.3000    7.4510 H   0  0  0  0  0  0  0  0  0  0  0  0
    5.4329   -4.9305    5.7406 H   0  0  0  0  0  0  0  0  0  0  0  0
    4.5024   -3.6867    4.9186 H   0  0  0  0  0  0  0  0  0  0  0  0
    3.4034   -4.4682    7.4883 H   0  0  0  0  0  0  0  0  0  0  0  0
    2.3718   -4.0999    2.1466 H   0  0  0  0  0  0  0  0  0  0  0  0
    3.8084   -4.9908    1.6285 H   0  0  0  0  0  0  0  0  0  0  0  0
    0.6580   -5.5726    2.9743 H   0  0  0  0  0  0  0  0  0  0  0  0
   -2.1474   -4.6904    6.5663 H   0  0  0  0  0  0  0  0  0  0  0  0
   -1.0807   -3.8214    8.9457 H   0  0  0  0  0  0  0  0  0  0  0  0
    1.5883   -3.8481    8.6485 H   0  0  0  0  0  0  0  0  0  0  0  0
    7.3745   -3.5091    6.2501 H   0  0  0  0  0  0  0  0  0  0  0  0
    8.3247   -1.5916    7.5291 H   0  0  0  0  0  0  0  0  0  0  0  0
    6.8381   -0.0123    8.7212 H   0  0  0  0  0  0  0  0  0  0  0  0
  2 17  1  0  0  0  0
  2 38  2  0  0  0  0
  2  1  2  0  0  0  0
  3  2  1  0  0  0  0
  4 40  1  0  0  0  0
  4  3  1  0  0  0  0
  6 43  1  0  0  0  0
  6  5  1  0  0  0  0
  7  8  1  1  0  0  0
  7  6  1  0  0  0  0
  9 44  1  0  0  0  0
  9  7  1  0  0  0  0
 10  9  1  0  0  0  0
 11 45  1  0  0  0  0
 11 47  1  0  0  0  0
 11 10  1  0  0  0  0
 12 10  2  0  0  0  0
 13 14  1  0  0  0  0
 13  7  1  0  0  0  0
 14 48  1  0  0  0  0
 15 50  1  0  0  0  0
 15 14  1  0  0  0  0
 16 13  2  0  0  0  0
 17 52  1  0  0  0  0
 18 37  1  0  0  0  0
 18 17  1  0  0  0  0
 19 18  2  0  0  0  0
 20 35  2  0  0  0  0
 20 19  1  0  0  0  0
 21 22  1  0  0  0  0
 21 20  1  0  0  0  0
 22 56  1  0  0  0  0
 23 22  1  0  0  0  0
 23 30  1  0  0  0  0
 24 23  2  0  0  0  0
 25 27  2  0  0  0  0
 25 24  1  0  0  0  0
 26 25  1  0  0  0  0
 28 24  1  0  0  0  0
 28 29  2  0  0  0  0
 29 31  1  0  0  0  0
 30 34  2  0  0  0  0
 31 30  1  0  0  0  0
 31 32  1  0  0  0  0
 32 33  2  0  0  0  0
 33 61  1  0  0  0  0
 34 33  1  0  0  0  0
 34 62  1  0  0  0  0
 35 36  1  0  0  0  0
 36 64  1  0  0  0  0
 36 37  2  0  0  0  0
 37 65  1  0  0  0  0
 39  3  1  0  0  0  0
 41  4  1  0  0  0  0
 42  6  1  0  0  0  0
 46 11  1  0  0  0  0
 49 15  1  0  0  0  0
 51 15  1  0  0  0  0
 53 19  1  0  0  0  0
 54 21  1  0  0  0  0
 55 21  1  0  0  0  0
 57 26  1  0  0  0  0
 58 26  1  0  0  0  0
 59 28  1  0  0  0  0
 60 32  1  0  0  0  0
 63 35  1  0  0  0  0
M  END
