80
-1 1
O         5.860314   -3.030288    0.983048
C         5.277523   -2.246251    0.240201
N         4.721451   -1.106978    0.735396
C         3.749323   -0.204951    0.147770
C         2.508417   -0.035588    1.017184
C         1.479984    0.860097    0.334089
C         0.120132    0.829037    1.017311
C        -0.955529    1.686595    0.330328
H        -0.626315    2.733608    0.293238
C        -1.304977    1.137052   -1.060558
N        -0.738670    1.671327   -2.160603
C        -1.035687    1.115721   -3.478757
C        -1.313223    2.251154   -4.450517
O        -0.262182    3.185867   -4.494561
C         0.012820    3.719271   -3.230162
C         0.347856    2.636090   -2.211672
O        -2.126860    0.223120   -1.117701
N        -2.196908    1.660365    1.075085
C        -2.447668    2.498231    2.093387
O        -3.632738    2.197352    2.678291
C        -4.012992    2.983825    3.797979
C        -3.536000    2.388220    5.101793
C        -2.200221    2.530456    5.499807
C        -1.755511    1.960527    6.690323
C        -2.638425    1.246235    7.501242
C        -3.969290    1.101818    7.114184
C        -4.411955    1.668737    5.919264
O        -1.735666    3.417334    2.449392
C         5.186249   -2.555662   -1.217988
C         5.169646   -1.691190   -2.236260
S         2.094429   -0.603516   -3.062309
C         1.647835   -2.358470   -3.206679
C         0.541528   -2.871496   -2.263549
H         0.404389   -3.942823   -2.504167
N        -0.744125   -2.256620   -2.472420
C        -1.635858   -2.780277   -3.343042
C        -2.979372   -2.075669   -3.400990
O        -1.396469   -3.749065   -4.050103
C         0.872182   -2.831569   -0.769364
N         2.036994   -3.441171   -0.425636
C         2.362047   -3.796971    0.933474
O         0.107816   -2.371216    0.063735
H         4.881330   -1.021429    1.734276
H         3.418724   -0.587500   -0.831011
H         4.210279    0.783637   -0.040444
H         2.774012    0.363130    2.015511
H         2.053633   -1.024022    1.176843
H         1.382696    0.504351   -0.707509
H         1.863956    1.895905    0.288511
H         0.198640    1.186913    2.058064
H        -0.239535   -0.212521    1.041831
H        -1.908531    0.461168   -3.393818
H        -0.161091    0.513933   -3.792651
H        -2.258230    2.763582   -4.168743
H        -1.428061    1.850621   -5.467457
H        -0.856006    4.306652   -2.861403
H         0.867393    4.401983   -3.343373
H         0.519074    3.092471   -1.231272
H         1.265226    2.100802   -2.512123
H        -2.824669    0.890286    0.866769
H        -5.110922    3.017283    3.774858
H        -3.617345    4.002130    3.674689
H        -1.514947    3.082918    4.852811
H        -0.710312    2.073779    6.987199
H        -2.287060    0.799383    8.434289
H        -4.665672    0.540884    7.741944
H        -5.455277    1.547326    5.614487
H         5.245852   -3.631739   -1.411559
H         5.162329   -2.040103   -3.270737
H         5.162725   -0.609862   -2.099866
H         2.543852   -2.993160   -3.056787
H         1.296195   -2.587036   -4.225034
H        -1.031729   -1.511803   -1.841510
H        -3.066986   -1.578544   -4.379201
H        -3.109935   -1.334103   -2.602174
H        -3.770587   -2.836503   -3.350648
H         2.650615   -3.743828   -1.169829
H         3.450462   -3.838357    1.070645
H         1.934620   -4.776981    1.212210
H         1.942942   -3.048123    1.617154
