-1 1
 OpenBabel05192410563D

 80 81  0  0  1  0  0  0  0  0999 V2000
    5.2527   -2.9434    0.8558 O   0  0  0  0  0  0  0  0  0  0  0  0
    4.8909   -2.1372   -0.0232 C   0  0  0  0  0  0  0  0  0  0  0  0
    5.0557   -0.7599    0.3127 N   0  0  0  0  0  0  0  0  0  0  0  0
    4.0650    0.2693    0.0855 C   0  0  0  0  0  0  0  0  0  0  0  0
    2.7105    0.0355    0.7550 C   0  0  0  0  0  0  0  0  0  0  0  0
    1.6493    1.0098    0.2680 C   0  0  0  0  0  0  0  0  0  0  0  0
    0.2822    0.7916    0.9044 C   0  0  0  0  0  0  0  0  0  0  0  0
   -0.8511    1.6336    0.2855 C   0  0  1  0  0  0  0  0  0  0  0  0
   -0.5762    2.6965    0.3157 H   0  0  0  0  0  0  0  0  0  0  0  0
   -1.1628    1.1473   -1.1347 C   0  0  0  0  0  0  0  0  0  0  0  0
   -0.4968    1.6722   -2.1911 N   0  0  0  0  0  0  0  0  0  0  0  0
   -0.6661    1.0995   -3.5214 C   0  0  0  0  0  0  0  0  0  0  0  0
   -1.0610    2.1942   -4.5001 C   0  0  0  0  0  0  0  0  0  0  0  0
   -0.1424    3.2613   -4.4893 O   0  0  0  0  0  0  0  0  0  0  0  0
   -0.0040    3.8200   -3.2120 C   0  0  0  0  0  0  0  0  0  0  0  0
    0.4395    2.7827   -2.1849 C   0  0  0  0  0  0  0  0  0  0  0  0
   -1.9958    0.2558   -1.2672 O   0  0  0  0  0  0  0  0  0  0  0  0
   -2.0782    1.5002    1.0358 N   0  0  0  0  0  0  0  0  0  0  0  0
   -2.3991    2.3308    2.0425 C   0  0  0  0  0  0  0  0  0  0  0  0
   -3.5552    1.9446    2.6291 O   0  0  0  0  0  0  0  0  0  0  0  0
   -3.9937    2.7046    3.7474 C   0  0  0  0  0  0  0  0  0  0  0  0
   -3.4595    2.1595    5.0507 C   0  0  0  0  0  0  0  0  0  0  0  0
   -2.1462    2.4378    5.4512 C   0  0  0  0  0  0  0  0  0  0  0  0
   -1.6462    1.9122    6.6402 C   0  0  0  0  0  0  0  0  0  0  0  0
   -2.4514    1.1068    7.4464 C   0  0  0  0  0  0  0  0  0  0  0  0
   -3.7597    0.8266    7.0566 C   0  0  0  0  0  0  0  0  0  0  0  0
   -4.2574    1.3496    5.8635 C   0  0  0  0  0  0  0  0  0  0  0  0
   -1.7624    3.3092    2.3824 O   0  0  0  0  0  0  0  0  0  0  0  0
    4.3885   -2.5292   -1.2923 C   0  0  0  0  0  3  0  0  0  0  0  0
    4.1299   -1.6864   -2.4538 C   0  0  0  0  0  0  0  0  0  0  0  0
    2.2711   -1.1323   -2.7647 S   0  0  0  0  0  0  0  0  0  0  0  0
    1.5367   -2.7911   -2.8590 C   0  0  0  0  0  0  0  0  0  0  0  0
    0.3153   -3.0504   -1.9735 C   0  0  2  0  0  0  0  0  0  0  0  0
    0.0795   -4.1222   -2.1208 H   0  0  0  0  0  0  0  0  0  0  0  0
   -0.8534   -2.3018   -2.3716 N   0  0  0  0  0  0  0  0  0  0  0  0
   -1.6102   -2.6968   -3.4222 C   0  0  0  0  0  0  0  0  0  0  0  0
   -2.9006   -1.9232   -3.6274 C   0  0  0  0  0  0  0  0  0  0  0  0
   -1.2918   -3.6107   -4.1684 O   0  0  0  0  0  0  0  0  0  0  0  0
    0.4958   -2.8992   -0.4540 C   0  0  0  0  0  0  0  0  0  0  0  0
    1.6886   -3.2681    0.0446 N   0  0  0  0  0  0  0  0  0  0  0  0
    1.9228   -3.3124    1.4721 C   0  0  0  0  0  0  0  0  0  0  0  0
   -0.4528   -2.5564    0.2439 O   0  0  0  0  0  0  0  0  0  0  0  0
    5.3937   -0.7566    1.2708 H   0  0  0  0  0  0  0  0  0  0  0  0
    3.8899    0.4005   -0.9914 H   0  0  0  0  0  0  0  0  0  0  0  0
    4.4903    1.2290    0.4320 H   0  0  0  0  0  0  0  0  0  0  0  0
    2.8159    0.0707    1.8543 H   0  0  0  0  0  0  0  0  0  0  0  0
    2.3848   -0.9790    0.4912 H   0  0  0  0  0  0  0  0  0  0  0  0
    1.5742    0.8576   -0.8195 H   0  0  0  0  0  0  0  0  0  0  0  0
    1.9779    2.0539    0.4320 H   0  0  0  0  0  0  0  0  0  0  0  0
    0.3177    1.0463    1.9764 H   0  0  0  0  0  0  0  0  0  0  0  0
   -0.0033   -0.2719    0.8316 H   0  0  0  0  0  0  0  0  0  0  0  0
   -1.4316    0.3204   -3.4733 H   0  0  0  0  0  0  0  0  0  0  0  0
    0.2861    0.6299   -3.8224 H   0  0  0  0  0  0  0  0  0  0  0  0
   -2.0762    2.5657   -4.2494 H   0  0  0  0  0  0  0  0  0  0  0  0
   -1.0812    1.7977   -5.5247 H   0  0  0  0  0  0  0  0  0  0  0  0
   -0.9631    4.2699   -2.8791 H   0  0  0  0  0  0  0  0  0  0  0  0
    0.7457    4.6208   -3.2860 H   0  0  0  0  0  0  0  0  0  0  0  0
    0.5054    3.2409   -1.1929 H   0  0  0  0  0  0  0  0  0  0  0  0
    1.4426    2.4068   -2.4493 H   0  0  0  0  0  0  0  0  0  0  0  0
   -2.6522    0.6895    0.8289 H   0  0  0  0  0  0  0  0  0  0  0  0
   -5.0903    2.6434    3.7301 H   0  0  0  0  0  0  0  0  0  0  0  0
   -3.6875    3.7519    3.6141 H   0  0  0  0  0  0  0  0  0  0  0  0
   -1.5198    3.0592    4.8071 H   0  0  0  0  0  0  0  0  0  0  0  0
   -0.6184    2.1308    6.9387 H   0  0  0  0  0  0  0  0  0  0  0  0
   -2.0564    0.6940    8.3776 H   0  0  0  0  0  0  0  0  0  0  0  0
   -4.3945    0.1932    7.6806 H   0  0  0  0  0  0  0  0  0  0  0  0
   -5.2819    1.1214    5.5562 H   0  0  0  0  0  0  0  0  0  0  0  0
    4.4690   -3.6082   -1.4574 H   0  0  0  0  0  0  0  0  0  0  0  0
    4.3640   -2.1881   -3.4034 H   0  0  0  0  0  0  0  0  0  0  0  0
    4.6425   -0.7142   -2.4577 H   0  0  0  0  0  0  0  0  0  0  0  0
    2.3296   -3.5053   -2.5851 H   0  0  0  0  0  0  0  0  0  0  0  0
    1.2372   -3.0138   -3.8920 H   0  0  0  0  0  0  0  0  0  0  0  0
   -1.2353   -1.6400   -1.6972 H   0  0  0  0  0  0  0  0  0  0  0  0
   -2.8704   -1.4542   -4.6222 H   0  0  0  0  0  0  0  0  0  0  0  0
   -3.0699   -1.1565   -2.8604 H   0  0  0  0  0  0  0  0  0  0  0  0
   -3.7342   -2.6399   -3.6328 H   0  0  0  0  0  0  0  0  0  0  0  0
    2.5359   -3.2000   -0.5424 H   0  0  0  0  0  0  0  0  0  0  0  0
    3.0091   -3.3254    1.6364 H   0  0  0  0  0  0  0  0  0  0  0  0
    1.4712   -4.2150    1.9166 H   0  0  0  0  0  0  0  0  0  0  0  0
    1.4802   -2.4390    1.9758 H   0  0  0  0  0  0  0  0  0  0  0  0
  2  3  1  0  0  0  0
  2  1  2  0  0  0  0
  3 43  1  0  0  0  0
  4  3  1  0  0  0  0
  4 45  1  0  0  0  0
  4  5  1  0  0  0  0
  5 46  1  0  0  0  0
  6 49  1  0  0  0  0
  6  5  1  0  0  0  0
  6  7  1  0  0  0  0
  7 50  1  0  0  0  0
  8  9  1  6  0  0  0
  8  7  1  0  0  0  0
  8 18  1  0  0  0  0
 10  8  1  0  0  0  0
 11 16  1  0  0  0  0
 11 10  1  0  0  0  0
 12 52  1  0  0  0  0
 12 11  1  0  0  0  0
 13 14  1  0  0  0  0
 13 54  1  0  0  0  0
 13 12  1  0  0  0  0
 14 15  1  0  0  0  0
 15 56  1  0  0  0  0
 15 16  1  0  0  0  0
 16 58  1  0  0  0  0
 17 10  2  0  0  0  0
 18 19  1  0  0  0  0
 19 28  2  0  0  0  0
 19 20  1  0  0  0  0
 20 21  1  0  0  0  0
 21 22  1  0  0  0  0
 22 23  2  0  0  0  0
 22 27  1  0  0  0  0
 23 24  1  0  0  0  0
 24 64  1  0  0  0  0
 24 25  2  0  0  0  0
 25 65  1  0  0  0  0
 26 25  1  0  0  0  0
 26 66  1  0  0  0  0
 27 26  2  0  0  0  0
 29  2  1  0  0  0  0
 30 29  1  0  0  0  0
 31 30  1  0  0  0  0
 32 31  1  0  0  0  0
 32 71  1  0  0  0  0
 32 33  1  0  0  0  0
 33 34  1  6  0  0  0
 33 39  1  0  0  0  0
 35 33  1  0  0  0  0
 35 73  1  0  0  0  0
 36 35  1  0  0  0  0
 37 36  1  0  0  0  0
 37 75  1  0  0  0  0
 38 36  2  0  0  0  0
 39 40  1  0  0  0  0
 39 42  2  0  0  0  0
 40 41  1  0  0  0  0
 41 78  1  0  0  0  0
 41 79  1  0  0  0  0
 41 80  1  0  0  0  0
 44  4  1  0  0  0  0
 47  5  1  0  0  0  0
 48  6  1  0  0  0  0
 51  7  1  0  0  0  0
 53 12  1  0  0  0  0
 55 13  1  0  0  0  0
 57 15  1  0  0  0  0
 59 16  1  0  0  0  0
 60 18  1  0  0  0  0
 61 21  1  0  0  0  0
 62 21  1  0  0  0  0
 63 23  1  0  0  0  0
 67 27  1  0  0  0  0
 68 29  1  0  0  0  0
 69 30  1  0  0  0  0
 70 30  1  0  0  0  0
 72 32  1  0  0  0  0
 74 37  1  0  0  0  0
 76 37  1  0  0  0  0
 77 40  1  0  0  0  0
M  END
