80
-1 1
O         5.252708   -2.943440    0.855800
C         4.890911   -2.137165   -0.023163
N         5.055743   -0.759884    0.312722
C         4.064983    0.269292    0.085500
C         2.710534    0.035451    0.755005
C         1.649272    1.009841    0.267954
C         0.282230    0.791632    0.904358
C        -0.851118    1.633594    0.285495
H        -0.576195    2.696546    0.315728
C        -1.162788    1.147288   -1.134748
N        -0.496775    1.672179   -2.191094
C        -0.666091    1.099544   -3.521428
C        -1.060978    2.194244   -4.500081
O        -0.142407    3.261335   -4.489318
C        -0.004031    3.819964   -3.212024
C         0.439481    2.782734   -2.184893
O        -1.995784    0.255832   -1.267198
N        -2.078154    1.500187    1.035762
C        -2.399052    2.330831    2.042490
O        -3.555212    1.944632    2.629112
C        -3.993651    2.704575    3.747388
C        -3.459487    2.159534    5.050685
C        -2.146248    2.437849    5.451197
C        -1.646210    1.912175    6.640167
C        -2.451378    1.106804    7.446361
C        -3.759692    0.826607    7.056594
C        -4.257387    1.349588    5.863526
O        -1.762382    3.309191    2.382424
C         4.388531   -2.529244   -1.292311
C         4.129869   -1.686366   -2.453826
S         2.271092   -1.132298   -2.764663
C         1.536704   -2.791062   -2.858958
C         0.315345   -3.050416   -1.973505
H         0.079507   -4.122234   -2.120791
N        -0.853428   -2.301769   -2.371641
C        -1.610156   -2.696768   -3.422162
C        -2.900613   -1.923213   -3.627425
O        -1.291835   -3.610668   -4.168424
C         0.495764   -2.899223   -0.453957
N         1.688593   -3.268100    0.044612
C         1.922824   -3.312403    1.472061
O        -0.452838   -2.556446    0.243929
H         5.393669   -0.756623    1.270836
H         3.889857    0.400468   -0.991442
H         4.490292    1.228997    0.431969
H         2.815859    0.070714    1.854314
H         2.384762   -0.979000    0.491187
H         1.574249    0.857648   -0.819462
H         1.977852    2.053886    0.431984
H         0.317658    1.046303    1.976369
H        -0.003285   -0.271871    0.831597
H        -1.431566    0.320369   -3.473273
H         0.286112    0.629941   -3.822413
H        -2.076225    2.565724   -4.249376
H        -1.081216    1.797667   -5.524682
H        -0.963104    4.269881   -2.879121
H         0.745725    4.620809   -3.286032
H         0.505394    3.240883   -1.192929
H         1.442559    2.406844   -2.449283
H        -2.652172    0.689490    0.828866
H        -5.090339    2.643449    3.730127
H        -3.687503    3.751912    3.614064
H        -1.519838    3.059153    4.807136
H        -0.618433    2.130814    6.938739
H        -2.056393    0.694040    8.377591
H        -4.394478    0.193207    7.680587
H        -5.281887    1.121439    5.556217
H         4.468980   -3.608156   -1.457443
H         4.364027   -2.188123   -3.403400
H         4.642486   -0.714221   -2.457741
H         2.329647   -3.505343   -2.585109
H         1.237238   -3.013837   -3.891980
H        -1.235283   -1.640023   -1.697156
H        -2.870414   -1.454183   -4.622194
H        -3.069928   -1.156528   -2.860438
H        -3.734155   -2.639911   -3.632844
H         2.535937   -3.200049   -0.542407
H         3.009133   -3.325355    1.636424
H         1.471249   -4.214963    1.916552
H         1.480178   -2.439029    1.975824
