-1 1
 OpenBabel05192410563D

100103  0  0  1  0  0  0  0  0999 V2000
   -3.4792   -1.7621    0.2692 O   0  0  0  0  0  0  0  0  0  0  0  0
   -2.6859   -1.4066    1.1707 C   0  0  0  0  0  0  0  0  0  0  0  0
   -2.7354    0.0298    1.4582 N   0  0  0  0  0  0  0  0  0  0  0  0
   -3.0344    0.4938    2.8108 C   0  0  0  0  0  0  0  0  0  0  0  0
   -2.7785    1.9951    2.9492 C   0  0  0  0  0  0  0  0  0  0  0  0
   -1.2912    2.4185    2.9464 C   0  0  0  0  0  0  0  0  0  0  0  0
   -0.9439    3.5814    2.0083 C   0  0  0  0  0  0  0  0  0  0  0  0
   -0.6684    3.2239    0.5318 C   0  0  1  0  0  0  0  0  0  0  0  0
   -0.7781    4.1601   -0.0308 H   0  0  0  0  0  0  0  0  0  0  0  0
    0.8162    2.9027    0.2710 C   0  0  0  0  0  0  0  0  0  0  0  0
    1.2694    1.6305    0.0969 N   0  0  0  0  0  0  0  0  0  0  0  0
    0.6834    0.4226    0.6407 C   0  0  0  0  0  0  0  0  0  0  0  0
    0.6367   -0.6990   -0.3801 C   0  0  0  0  0  0  0  0  0  0  0  0
    1.8816   -0.7107   -1.1579 N   0  0  0  0  0  0  0  0  0  0  0  0
    3.0006    0.0083   -0.5460 C   0  0  0  0  0  0  0  0  0  0  0  0
    2.6415    1.4816   -0.3858 C   0  0  0  0  0  0  0  0  0  0  0  0
    2.2094   -2.0982   -2.0285 S   0  0  0  0  0  0  0  0  0  0  0  0
    1.8023   -3.2821   -1.2763 O   0  0  0  0  0  0  0  0  0  0  0  0
    1.1671   -1.9594   -3.4852 C   0  0  0  0  0  0  0  0  0  0  0  0
    1.8235   -1.5747   -4.6324 C   0  0  0  0  0  0  0  0  0  0  0  0
    1.1195   -1.4319   -5.8460 C   0  0  0  0  0  0  0  0  0  0  0  0
   -0.2336   -1.6486   -5.8763 C   0  0  0  0  0  0  0  0  0  0  0  0
   -0.2419   -2.2277   -3.4762 C   0  0  0  0  0  0  0  0  0  0  0  0
   -0.9420   -2.0342   -4.7090 C   0  0  0  0  0  0  0  0  0  0  0  0
   -2.3510   -2.2158   -4.7455 C   0  0  0  0  0  0  0  0  0  0  0  0
   -3.0483   -2.5464   -3.6118 C   0  0  0  0  0  0  0  0  0  0  0  0
   -2.3632   -2.7533   -2.3917 C   0  0  0  0  0  0  0  0  0  0  0  0
   -0.9952   -2.6310   -2.3375 C   0  0  0  0  0  0  0  0  0  0  0  0
    3.6009   -1.9810   -2.4644 O   0  0  0  0  0  0  0  0  0  0  0  0
    1.5878    3.8495    0.1767 O   0  0  0  0  0  0  0  0  0  0  0  0
   -1.6146    2.3106   -0.0598 N   0  0  0  0  0  0  0  0  0  0  0  0
   -2.6171    2.7923   -0.8565 C   0  0  0  0  0  0  0  0  0  0  0  0
   -3.4387    1.8276   -1.3394 O   0  0  0  0  0  0  0  0  0  0  0  0
   -2.8633    0.6543   -1.9277 C   0  0  0  0  0  0  0  0  0  0  0  0
   -2.1052    0.9971   -3.1854 C   0  0  0  0  0  0  0  0  0  0  0  0
   -0.7289    1.2471   -3.1608 C   0  0  0  0  0  0  0  0  0  0  0  0
   -0.0498    1.6012   -4.3249 C   0  0  0  0  0  0  0  0  0  0  0  0
   -0.7409    1.7205   -5.5283 C   0  0  0  0  0  0  0  0  0  0  0  0
   -2.1152    1.4847   -5.5629 C   0  0  0  0  0  0  0  0  0  0  0  0
   -2.7890    1.1268   -4.3982 C   0  0  0  0  0  0  0  0  0  0  0  0
   -2.8097    3.9553   -1.1086 O   0  0  0  0  0  0  0  0  0  0  0  0
   -1.7528   -2.2069    1.8299 C   0  0  0  0  0  3  0  0  0  0  0  0
   -0.6755   -1.7338    2.7107 C   0  0  0  0  0  0  0  0  0  0  0  0
   -0.8630   -1.9462    4.5984 S   0  0  0  0  0  0  0  0  0  0  0  0
   -0.0060   -0.4355    5.1312 C   0  0  0  0  0  0  0  0  0  0  0  0
    1.4279   -0.2954    4.6201 C   0  0  1  0  0  0  0  0  0  0  0  0
    1.5389   -0.7891    3.6455 H   0  0  0  0  0  0  0  0  0  0  0  0
    1.7598    1.1088    4.3951 N   0  0  0  0  0  0  0  0  0  0  0  0
    2.6541    1.5171    3.4638 C   0  0  0  0  0  0  0  0  0  0  0  0
    2.8232    3.0077    3.2999 C   0  0  0  0  0  0  0  0  0  0  0  0
    3.2916    0.7191    2.7826 O   0  0  0  0  0  0  0  0  0  0  0  0
    2.4530   -0.9275    5.5853 C   0  0  0  0  0  0  0  0  0  0  0  0
    3.6350   -1.2127    4.9858 N   0  0  0  0  0  0  0  0  0  0  0  0
    4.7689   -1.7253    5.7096 C   0  0  0  0  0  0  0  0  0  0  0  0
    2.2189   -1.1138    6.7645 O   0  0  0  0  0  0  0  0  0  0  0  0
   -3.4891    0.3430    0.8450 H   0  0  0  0  0  0  0  0  0  0  0  0
   -2.4361   -0.0717    3.5386 H   0  0  0  0  0  0  0  0  0  0  0  0
   -4.0881    0.2820    3.0756 H   0  0  0  0  0  0  0  0  0  0  0  0
   -3.2529    2.3444    3.8808 H   0  0  0  0  0  0  0  0  0  0  0  0
   -3.3153    2.5151    2.1372 H   0  0  0  0  0  0  0  0  0  0  0  0
   -0.6509    1.5530    2.7176 H   0  0  0  0  0  0  0  0  0  0  0  0
   -1.0081    2.7115    3.9709 H   0  0  0  0  0  0  0  0  0  0  0  0
   -0.0554    4.1212    2.3722 H   0  0  0  0  0  0  0  0  0  0  0  0
   -1.7707    4.3101    2.0262 H   0  0  0  0  0  0  0  0  0  0  0  0
   -0.3341    0.5853    0.9967 H   0  0  0  0  0  0  0  0  0  0  0  0
    1.2792    0.1103    1.5122 H   0  0  0  0  0  0  0  0  0  0  0  0
   -0.2141   -0.5479   -1.0562 H   0  0  0  0  0  0  0  0  0  0  0  0
    0.4669   -1.6466    0.1546 H   0  0  0  0  0  0  0  0  0  0  0  0
    3.8780   -0.0814   -1.1956 H   0  0  0  0  0  0  0  0  0  0  0  0
    3.2650   -0.4228    0.4342 H   0  0  0  0  0  0  0  0  0  0  0  0
    2.7261    2.0125   -1.3462 H   0  0  0  0  0  0  0  0  0  0  0  0
    3.3544    1.9445    0.3152 H   0  0  0  0  0  0  0  0  0  0  0  0
    2.8973   -1.3894   -4.5905 H   0  0  0  0  0  0  0  0  0  0  0  0
    1.6569   -1.1310   -6.7473 H   0  0  0  0  0  0  0  0  0  0  0  0
   -0.7956   -1.5130   -6.8036 H   0  0  0  0  0  0  0  0  0  0  0  0
   -2.8696   -2.0538   -5.6939 H   0  0  0  0  0  0  0  0  0  0  0  0
   -4.1357   -2.6467   -3.6424 H   0  0  0  0  0  0  0  0  0  0  0  0
   -2.9111   -2.9435   -1.4629 H   0  0  0  0  0  0  0  0  0  0  0  0
   -0.4937   -2.8418   -1.3967 H   0  0  0  0  0  0  0  0  0  0  0  0
   -1.8189    1.4189    0.4131 H   0  0  0  0  0  0  0  0  0  0  0  0
   -3.7155   -0.0016   -2.1392 H   0  0  0  0  0  0  0  0  0  0  0  0
   -2.2392    0.1068   -1.2083 H   0  0  0  0  0  0  0  0  0  0  0  0
   -0.1795    1.1789   -2.2208 H   0  0  0  0  0  0  0  0  0  0  0  0
    1.0271    1.7786   -4.2870 H   0  0  0  0  0  0  0  0  0  0  0  0
   -0.2073    1.9927   -6.4422 H   0  0  0  0  0  0  0  0  0  0  0  0
   -2.6641    1.5786   -6.5033 H   0  0  0  0  0  0  0  0  0  0  0  0
   -3.8654    0.9388   -4.4242 H   0  0  0  0  0  0  0  0  0  0  0  0
   -1.7854   -3.2682    1.5736 H   0  0  0  0  0  0  0  0  0  0  0  0
   -0.5250   -0.6526    2.6140 H   0  0  0  0  0  0  0  0  0  0  0  0
    0.2820   -2.2329    2.4913 H   0  0  0  0  0  0  0  0  0  0  0  0
    0.0042   -0.4379    6.2309 H   0  0  0  0  0  0  0  0  0  0  0  0
   -0.5909    0.4319    4.7886 H   0  0  0  0  0  0  0  0  0  0  0  0
    1.2861    1.8018    4.9593 H   0  0  0  0  0  0  0  0  0  0  0  0
    2.2314    3.5947    4.0155 H   0  0  0  0  0  0  0  0  0  0  0  0
    2.5392    3.3000    2.2767 H   0  0  0  0  0  0  0  0  0  0  0  0
    3.8875    3.2513    3.4228 H   0  0  0  0  0  0  0  0  0  0  0  0
    3.7515   -0.8945    4.0256 H   0  0  0  0  0  0  0  0  0  0  0  0
    4.4287   -2.0215    6.7099 H   0  0  0  0  0  0  0  0  0  0  0  0
    5.5636   -0.9681    5.8196 H   0  0  0  0  0  0  0  0  0  0  0  0
    5.1937   -2.6044    5.2017 H   0  0  0  0  0  0  0  0  0  0  0  0
  1  2  2  0  0  0  0
  2  3  1  0  0  0  0
  2 42  1  0  0  0  0
  3  4  1  0  0  0  0
  4  5  1  0  0  0  0
  4 58  1  0  0  0  0
  4 57  1  0  0  0  0
  5 59  1  0  0  0  0
  6  5  1  0  0  0  0
  6 62  1  0  0  0  0
  7 64  1  0  0  0  0
  7 63  1  0  0  0  0
  7  6  1  0  0  0  0
  8  9  1  6  0  0  0
  8  7  1  0  0  0  0
 10  8  1  0  0  0  0
 11 10  1  0  0  0  0
 11 12  1  0  0  0  0
 12 65  1  0  0  0  0
 12 66  1  0  0  0  0
 13 68  1  0  0  0  0
 13 12  1  0  0  0  0
 14 15  1  0  0  0  0
 14 13  1  0  0  0  0
 15 16  1  0  0  0  0
 15 70  1  0  0  0  0
 16 11  1  0  0  0  0
 16 72  1  0  0  0  0
 17 18  2  0  0  0  0
 17 14  1  0  0  0  0
 19 23  1  0  0  0  0
 19 17  1  0  0  0  0
 20 73  1  0  0  0  0
 20 19  2  0  0  0  0
 21 20  1  0  0  0  0
 22 21  2  0  0  0  0
 22 24  1  0  0  0  0
 23 28  1  0  0  0  0
 24 23  2  0  0  0  0
 25 24  1  0  0  0  0
 25 26  2  0  0  0  0
 26 27  1  0  0  0  0
 27 28  2  0  0  0  0
 27 78  1  0  0  0  0
 28 79  1  0  0  0  0
 29 17  2  0  0  0  0
 30 10  2  0  0  0  0
 31 80  1  0  0  0  0
 31  8  1  0  0  0  0
 32 31  1  0  0  0  0
 33 32  1  0  0  0  0
 34 33  1  0  0  0  0
 34 82  1  0  0  0  0
 35 36  1  0  0  0  0
 35 34  1  0  0  0  0
 36 83  1  0  0  0  0
 37 84  1  0  0  0  0
 37 36  2  0  0  0  0
 38 37  1  0  0  0  0
 39 38  2  0  0  0  0
 39 40  1  0  0  0  0
 40 35  2  0  0  0  0
 41 32  2  0  0  0  0
 42 43  1  0  0  0  0
 43 44  1  0  0  0  0
 44 45  1  0  0  0  0
 45 91  1  0  0  0  0
 46 47  1  6  0  0  0
 46 45  1  0  0  0  0
 46 52  1  0  0  0  0
 48 46  1  0  0  0  0
 48 93  1  0  0  0  0
 49 48  1  0  0  0  0
 50 96  1  0  0  0  0
 50 49  1  0  0  0  0
 50 94  1  0  0  0  0
 51 49  2  0  0  0  0
 52 55  2  0  0  0  0
 53 52  1  0  0  0  0
 53 54  1  0  0  0  0
 54 99  1  0  0  0  0
 54 98  1  0  0  0  0
 56  3  1  0  0  0  0
 60  5  1  0  0  0  0
 61  6  1  0  0  0  0
 67 13  1  0  0  0  0
 69 15  1  0  0  0  0
 71 16  1  0  0  0  0
 74 21  1  0  0  0  0
 75 22  1  0  0  0  0
 76 25  1  0  0  0  0
 77 26  1  0  0  0  0
 81 34  1  0  0  0  0
 85 38  1  0  0  0  0
 86 39  1  0  0  0  0
 87 40  1  0  0  0  0
 88 42  1  0  0  0  0
 89 43  1  0  0  0  0
 90 43  1  0  0  0  0
 92 45  1  0  0  0  0
 95 50  1  0  0  0  0
 97 53  1  0  0  0  0
100 54  1  0  0  0  0
M  END
