100
-1 1
O        -3.182447    7.332812   -3.019334
C        -2.487371    7.737971   -2.082343
N        -2.592721    9.123517   -1.773259
C        -2.799133    9.604013   -0.404839
C        -2.552103   11.108783   -0.307449
C        -1.073909   11.557176   -0.362025
C        -0.774510   12.718273   -1.317233
C        -0.517628   12.350925   -2.792820
H        -0.641088   13.279214   -3.365106
C         0.963860   12.031431   -3.068925
N         1.426039   10.759740   -3.227031
C         0.860913    9.545904   -2.670506
C         0.818186    8.421315   -3.691631
N         2.053183    8.433720   -4.482754
C         3.172210    9.157215   -3.875610
C         2.801252   10.625964   -3.706663
S         2.371744    7.085109   -5.410107
O         1.944060    5.875370   -4.712788
C         1.337080    7.296304   -6.865004
C         1.997174    7.743558   -7.986924
C         1.299923    7.944459   -9.196299
C        -0.050554    7.717567   -9.248486
C        -0.069569    7.017421   -6.881063
C        -0.762708    7.264378   -8.107822
C        -2.168114    7.062792   -8.167930
C        -2.869565    6.651930   -7.063586
C        -2.189227    6.392575   -5.851333
C        -0.826286    6.545415   -5.770866
O         3.764541    7.205635   -5.838006
O         1.725993   12.982085   -3.189932
N        -1.468304   11.425941   -3.360543
C        -2.508158   11.886691   -4.119499
O        -3.318952   10.896794   -4.577736
C        -2.717099    9.769366   -5.224909
C        -1.971699   10.185357   -6.467891
C        -0.595552   10.435498   -6.441789
C         0.069867   10.864799   -7.588222
C        -0.634436   11.056238   -8.774497
C        -2.008211   10.817267   -8.810250
C        -2.669238   10.387191   -7.662823
O        -2.737674   13.043283   -4.362633
C        -1.539228    6.911457   -1.385854
C        -0.498022    7.340894   -0.582796
S        -0.736161    7.473543    1.850944
C         0.137801    9.052975    2.084636
C         1.542943    9.084167    1.483995
H         1.561750    8.535495    0.534398
N         1.951615   10.452450    1.165736
C         2.804972   10.757391    0.163702
C         3.083190   12.225220   -0.061657
O         3.322116    9.894438   -0.542442
C         2.600470    8.464194    2.416376
N         3.664511    7.950999    1.743563
C         4.823910    7.427674    2.415880
O         2.510102    8.490294    3.628193
H        -3.334431    9.473847   -2.380454
H        -2.160059    9.042918    0.294487
H        -3.835803    9.392043   -0.084636
H        -3.000169   11.462386    0.634682
H        -3.125274   11.610494   -1.106794
H        -0.423044   10.700697   -0.594577
H        -0.765293   11.862884    0.649190
H         0.108745   13.280511   -0.975771
H        -1.616642   13.428956   -1.291760
H        -0.151048    9.699584   -2.295633
H         1.472640    9.246073   -1.805803
H        -0.042412    8.557817   -4.359879
H         0.677445    7.469758   -3.154834
H         4.045777    9.075531   -4.531226
H         3.443931    8.722537   -2.899309
H         2.882965   11.164287   -4.663053
H         3.506562   11.090116   -2.999418
H         3.069889    7.931251   -7.929518
H         1.841017    8.295563  -10.076892
H        -0.607044    7.894798  -10.171964
H        -2.681070    7.268004   -9.110766
H        -3.953551    6.526720   -7.113029
H        -2.739183    6.113764   -4.949754
H        -0.326663    6.296701   -4.838123
H        -1.631347   10.528987   -2.896432
H        -3.554639    9.104816   -5.466597
H        -2.072895    9.206797   -4.534418
H        -0.035145   10.310180   -5.514081
H         1.146235   11.044725   -7.549906
H        -0.111669   11.388596   -9.674559
H        -2.567078   10.968404   -9.737058
H        -3.745918   10.200849   -7.688767
H        -1.646131    5.846788   -1.603049
H        -0.240550    8.399003   -0.565877
H         0.336080    6.662411   -0.406480
H         0.220719    9.264827    3.162384
H        -0.441381    9.870689    1.627760
H         1.598730   11.193127    1.757397
H         2.608669   12.878479    0.683468
H         2.734986   12.515184   -1.065481
H         4.170765   12.379859   -0.038548
H         3.709647    8.143856    0.747041
H         4.567159    7.289545    3.473847
H         5.685734    8.114407    2.353159
H         5.120476    6.456978    1.990061
