-1 1
 OpenBabel05232414493D

100102  0  0  1  0  0  0  0  0999 V2000
   -3.1824    7.3328   -3.0193 O   0  0  0  0  0  0  0  0  0  0  0  0
   -2.4874    7.7380   -2.0823 C   0  0  0  0  0  0  0  0  0  0  0  0
   -2.5927    9.1235   -1.7733 N   0  0  0  0  0  0  0  0  0  0  0  0
   -2.7991    9.6040   -0.4048 C   0  0  0  0  0  0  0  0  0  0  0  0
   -2.5521   11.1088   -0.3074 C   0  0  0  0  0  0  0  0  0  0  0  0
   -1.0739   11.5572   -0.3620 C   0  0  0  0  0  0  0  0  0  0  0  0
   -0.7745   12.7183   -1.3172 C   0  0  0  0  0  0  0  0  0  0  0  0
   -0.5176   12.3509   -2.7928 C   0  0  1  0  0  0  0  0  0  0  0  0
   -0.6411   13.2792   -3.3651 H   0  0  0  0  0  0  0  0  0  0  0  0
    0.9639   12.0314   -3.0689 C   0  0  0  0  0  0  0  0  0  0  0  0
    1.4260   10.7597   -3.2270 N   0  0  0  0  0  0  0  0  0  0  0  0
    0.8609    9.5459   -2.6705 C   0  0  0  0  0  0  0  0  0  0  0  0
    0.8182    8.4213   -3.6916 C   0  0  0  0  0  0  0  0  0  0  0  0
    2.0532    8.4337   -4.4828 N   0  0  0  0  0  0  0  0  0  0  0  0
    3.1722    9.1572   -3.8756 C   0  0  0  0  0  0  0  0  0  0  0  0
    2.8013   10.6260   -3.7067 C   0  0  0  0  0  0  0  0  0  0  0  0
    2.3717    7.0851   -5.4101 S   0  0  0  0  0  0  0  0  0  0  0  0
    1.9441    5.8754   -4.7128 O   0  0  0  0  0  0  0  0  0  0  0  0
    1.3371    7.2963   -6.8650 C   0  0  0  0  0  0  0  0  0  0  0  0
    1.9972    7.7436   -7.9869 C   0  0  0  0  0  0  0  0  0  0  0  0
    1.2999    7.9445   -9.1963 C   0  0  0  0  0  0  0  0  0  0  0  0
   -0.0506    7.7176   -9.2485 C   0  0  0  0  0  0  0  0  0  0  0  0
   -0.0696    7.0174   -6.8811 C   0  0  0  0  0  0  0  0  0  0  0  0
   -0.7627    7.2644   -8.1078 C   0  0  0  0  0  0  0  0  0  0  0  0
   -2.1681    7.0628   -8.1679 C   0  0  0  0  0  0  0  0  0  0  0  0
   -2.8696    6.6519   -7.0636 C   0  0  0  0  0  0  0  0  0  0  0  0
   -2.1892    6.3926   -5.8513 C   0  0  0  0  0  0  0  0  0  0  0  0
   -0.8263    6.5454   -5.7709 C   0  0  0  0  0  0  0  0  0  0  0  0
    3.7645    7.2056   -5.8380 O   0  0  0  0  0  0  0  0  0  0  0  0
    1.7260   12.9821   -3.1899 O   0  0  0  0  0  0  0  0  0  0  0  0
   -1.4683   11.4259   -3.3605 N   0  0  0  0  0  0  0  0  0  0  0  0
   -2.5082   11.8867   -4.1195 C   0  0  0  0  0  0  0  0  0  0  0  0
   -3.3190   10.8968   -4.5777 O   0  0  0  0  0  0  0  0  0  0  0  0
   -2.7171    9.7694   -5.2249 C   0  0  0  0  0  0  0  0  0  0  0  0
   -1.9717   10.1854   -6.4679 C   0  0  0  0  0  0  0  0  0  0  0  0
   -0.5956   10.4355   -6.4418 C   0  0  0  0  0  0  0  0  0  0  0  0
    0.0699   10.8648   -7.5882 C   0  0  0  0  0  0  0  0  0  0  0  0
   -0.6344   11.0562   -8.7745 C   0  0  0  0  0  0  0  0  0  0  0  0
   -2.0082   10.8173   -8.8102 C   0  0  0  0  0  0  0  0  0  0  0  0
   -2.6692   10.3872   -7.6628 C   0  0  0  0  0  0  0  0  0  0  0  0
   -2.7377   13.0433   -4.3626 O   0  0  0  0  0  0  0  0  0  0  0  0
   -1.5392    6.9115   -1.3859 C   0  0  0  0  0  3  0  0  0  0  0  0
   -0.4980    7.3409   -0.5828 C   0  0  0  0  0  3  0  0  0  0  0  0
   -0.7362    7.4735    1.8509 S   0  0  0  0  0  1  0  0  0  0  0  0
    0.1378    9.0530    2.0846 C   0  0  0  0  0  0  0  0  0  0  0  0
    1.5429    9.0842    1.4840 C   0  0  1  0  0  0  0  0  0  0  0  0
    1.5617    8.5355    0.5344 H   0  0  0  0  0  0  0  0  0  0  0  0
    1.9516   10.4525    1.1657 N   0  0  0  0  0  0  0  0  0  0  0  0
    2.8050   10.7574    0.1637 C   0  0  0  0  0  0  0  0  0  0  0  0
    3.0832   12.2252   -0.0617 C   0  0  0  0  0  0  0  0  0  0  0  0
    3.3221    9.8944   -0.5424 O   0  0  0  0  0  0  0  0  0  0  0  0
    2.6005    8.4642    2.4164 C   0  0  0  0  0  0  0  0  0  0  0  0
    3.6645    7.9510    1.7436 N   0  0  0  0  0  0  0  0  0  0  0  0
    4.8239    7.4277    2.4159 C   0  0  0  0  0  0  0  0  0  0  0  0
    2.5101    8.4903    3.6282 O   0  0  0  0  0  0  0  0  0  0  0  0
   -3.3344    9.4738   -2.3805 H   0  0  0  0  0  0  0  0  0  0  0  0
   -2.1601    9.0429    0.2945 H   0  0  0  0  0  0  0  0  0  0  0  0
   -3.8358    9.3920   -0.0846 H   0  0  0  0  0  0  0  0  0  0  0  0
   -3.0002   11.4624    0.6347 H   0  0  0  0  0  0  0  0  0  0  0  0
   -3.1253   11.6105   -1.1068 H   0  0  0  0  0  0  0  0  0  0  0  0
   -0.4230   10.7007   -0.5946 H   0  0  0  0  0  0  0  0  0  0  0  0
   -0.7653   11.8629    0.6492 H   0  0  0  0  0  0  0  0  0  0  0  0
    0.1087   13.2805   -0.9758 H   0  0  0  0  0  0  0  0  0  0  0  0
   -1.6166   13.4290   -1.2918 H   0  0  0  0  0  0  0  0  0  0  0  0
   -0.1510    9.6996   -2.2956 H   0  0  0  0  0  0  0  0  0  0  0  0
    1.4726    9.2461   -1.8058 H   0  0  0  0  0  0  0  0  0  0  0  0
   -0.0424    8.5578   -4.3599 H   0  0  0  0  0  0  0  0  0  0  0  0
    0.6774    7.4698   -3.1548 H   0  0  0  0  0  0  0  0  0  0  0  0
    4.0458    9.0755   -4.5312 H   0  0  0  0  0  0  0  0  0  0  0  0
    3.4439    8.7225   -2.8993 H   0  0  0  0  0  0  0  0  0  0  0  0
    2.8830   11.1643   -4.6631 H   0  0  0  0  0  0  0  0  0  0  0  0
    3.5066   11.0901   -2.9994 H   0  0  0  0  0  0  0  0  0  0  0  0
    3.0699    7.9313   -7.9295 H   0  0  0  0  0  0  0  0  0  0  0  0
    1.8410    8.2956  -10.0769 H   0  0  0  0  0  0  0  0  0  0  0  0
   -0.6070    7.8948  -10.1720 H   0  0  0  0  0  0  0  0  0  0  0  0
   -2.6811    7.2680   -9.1108 H   0  0  0  0  0  0  0  0  0  0  0  0
   -3.9536    6.5267   -7.1130 H   0  0  0  0  0  0  0  0  0  0  0  0
   -2.7392    6.1138   -4.9498 H   0  0  0  0  0  0  0  0  0  0  0  0
   -0.3267    6.2967   -4.8381 H   0  0  0  0  0  0  0  0  0  0  0  0
   -1.6313   10.5290   -2.8964 H   0  0  0  0  0  0  0  0  0  0  0  0
   -3.5546    9.1048   -5.4666 H   0  0  0  0  0  0  0  0  0  0  0  0
   -2.0729    9.2068   -4.5344 H   0  0  0  0  0  0  0  0  0  0  0  0
   -0.0351   10.3102   -5.5141 H   0  0  0  0  0  0  0  0  0  0  0  0
    1.1462   11.0447   -7.5499 H   0  0  0  0  0  0  0  0  0  0  0  0
   -0.1117   11.3886   -9.6746 H   0  0  0  0  0  0  0  0  0  0  0  0
   -2.5671   10.9684   -9.7371 H   0  0  0  0  0  0  0  0  0  0  0  0
   -3.7459   10.2008   -7.6888 H   0  0  0  0  0  0  0  0  0  0  0  0
   -1.6461    5.8468   -1.6030 H   0  0  0  0  0  0  0  0  0  0  0  0
   -0.2406    8.3990   -0.5659 H   0  0  0  0  0  0  0  0  0  0  0  0
    0.3361    6.6624   -0.4065 H   0  0  0  0  0  0  0  0  0  0  0  0
    0.2207    9.2648    3.1624 H   0  0  0  0  0  0  0  0  0  0  0  0
   -0.4414    9.8707    1.6278 H   0  0  0  0  0  0  0  0  0  0  0  0
    1.5987   11.1931    1.7574 H   0  0  0  0  0  0  0  0  0  0  0  0
    2.6087   12.8785    0.6835 H   0  0  0  0  0  0  0  0  0  0  0  0
    2.7350   12.5152   -1.0655 H   0  0  0  0  0  0  0  0  0  0  0  0
    4.1708   12.3799   -0.0385 H   0  0  0  0  0  0  0  0  0  0  0  0
    3.7096    8.1439    0.7470 H   0  0  0  0  0  0  0  0  0  0  0  0
    4.5672    7.2895    3.4738 H   0  0  0  0  0  0  0  0  0  0  0  0
    5.6857    8.1144    2.3532 H   0  0  0  0  0  0  0  0  0  0  0  0
    5.1205    6.4570    1.9901 H   0  0  0  0  0  0  0  0  0  0  0  0
  1  2  2  0  0  0  0
  2  3  1  0  0  0  0
  2 42  1  0  0  0  0
  3  4  1  0  0  0  0
  4  5  1  0  0  0  0
  4 58  1  0  0  0  0
  4 57  1  0  0  0  0
  5 59  1  0  0  0  0
  6  5  1  0  0  0  0
  6 62  1  0  0  0  0
  7 64  1  0  0  0  0
  7 63  1  0  0  0  0
  7  6  1  0  0  0  0
  8  9  1  6  0  0  0
  8  7  1  0  0  0  0
 10  8  1  0  0  0  0
 11 10  1  0  0  0  0
 11 12  1  0  0  0  0
 12 65  1  0  0  0  0
 12 66  1  0  0  0  0
 13 68  1  0  0  0  0
 13 12  1  0  0  0  0
 14 15  1  0  0  0  0
 14 13  1  0  0  0  0
 15 16  1  0  0  0  0
 15 70  1  0  0  0  0
 16 11  1  0  0  0  0
 16 72  1  0  0  0  0
 17 18  2  0  0  0  0
 17 14  1  0  0  0  0
 19 17  1  0  0  0  0
 20 73  1  0  0  0  0
 20 19  2  0  0  0  0
 21 20  1  0  0  0  0
 22 21  2  0  0  0  0
 22 24  1  0  0  0  0
 23 19  1  0  0  0  0
 23 28  1  0  0  0  0
 24 23  2  0  0  0  0
 25 24  1  0  0  0  0
 25 26  2  0  0  0  0
 26 27  1  0  0  0  0
 27 28  2  0  0  0  0
 27 78  1  0  0  0  0
 28 79  1  0  0  0  0
 29 17  2  0  0  0  0
 30 10  2  0  0  0  0
 31 80  1  0  0  0  0
 31  8  1  0  0  0  0
 32 31  1  0  0  0  0
 33 32  1  0  0  0  0
 34 33  1  0  0  0  0
 34 82  1  0  0  0  0
 35 36  1  0  0  0  0
 35 34  1  0  0  0  0
 36 83  1  0  0  0  0
 37 84  1  0  0  0  0
 37 36  2  0  0  0  0
 38 37  1  0  0  0  0
 39 38  2  0  0  0  0
 39 40  1  0  0  0  0
 40 35  2  0  0  0  0
 41 32  2  0  0  0  0
 42 43  1  0  0  0  0
 43 89  1  0  0  0  0
 43 90  1  0  0  0  0
 44 45  1  0  0  0  0
 45 91  1  0  0  0  0
 46 47  1  6  0  0  0
 46 45  1  0  0  0  0
 46 52  1  0  0  0  0
 48 46  1  0  0  0  0
 48 93  1  0  0  0  0
 49 48  1  0  0  0  0
 50 96  1  0  0  0  0
 50 49  1  0  0  0  0
 50 94  1  0  0  0  0
 51 49  2  0  0  0  0
 52 55  2  0  0  0  0
 53 54  1  0  0  0  0
 53 52  1  0  0  0  0
 54 98  1  0  0  0  0
 56  3  1  0  0  0  0
 60  5  1  0  0  0  0
 61  6  1  0  0  0  0
 67 13  1  0  0  0  0
 69 15  1  0  0  0  0
 71 16  1  0  0  0  0
 74 21  1  0  0  0  0
 75 22  1  0  0  0  0
 76 25  1  0  0  0  0
 77 26  1  0  0  0  0
 81 34  1  0  0  0  0
 85 38  1  0  0  0  0
 86 39  1  0  0  0  0
 87 40  1  0  0  0  0
 88 42  1  0  0  0  0
 92 45  1  0  0  0  0
 95 50  1  0  0  0  0
 97 53  1  0  0  0  0
 99 54  1  0  0  0  0
100 54  1  0  0  0  0
M  END
