100
-1 1
O        -2.319367   -2.122356    0.174604
C        -2.207724   -1.710856    1.329204
N        -2.884260   -0.584302    1.698142
C        -3.182331    0.005065    3.001318
C        -2.910281    1.505998    3.000108
C        -1.413048    1.859139    2.992563
C        -1.032677    3.083469    2.159634
C        -0.809721    2.847683    0.648011
H        -0.977843    3.809695    0.148496
C         0.664571    2.583754    0.287298
N         1.147726    1.328966    0.051900
C         0.659731    0.087887    0.626688
C         0.641969   -1.036057   -0.397454
N         1.882153   -0.996866   -1.173438
C         2.963716   -0.177234   -0.630898
C         2.502407    1.266099   -0.496165
S         2.195465   -2.244803   -2.214495
O         1.668520   -3.488076   -1.660207
C         1.259095   -1.853472   -3.701626
C         1.994727   -1.297747   -4.723199
C         1.380041   -0.949614   -5.944621
C         0.036297   -1.155861   -6.113371
C        -0.147106   -2.101493   -3.839109
C        -0.752535   -1.725738   -5.079782
C        -2.147256   -1.921649   -5.265248
C        -2.923043   -2.457838   -4.269397
C        -2.329291   -2.829543   -3.042267
C        -0.980777   -2.670977   -2.835300
O         3.612056   -2.151331   -2.560434
O         1.389897    3.559170    0.149481
N        -1.747032    1.937939    0.028316
C        -2.809077    2.390569   -0.700071
O        -3.572506    1.383354   -1.211376
C        -2.914556    0.365431   -1.977281
C        -2.139561    0.940810   -3.135735
C        -0.762882    1.171570   -3.047107
C        -0.068831    1.743286   -4.111174
C        -0.744057    2.093842   -5.277835
C        -2.118069    1.874063   -5.375232
C        -2.808485    1.304988   -4.308399
O        -3.093074    3.544546   -0.880451
C        -1.280343   -2.439553    2.242633
C        -0.623677   -2.017623    3.328402
S        -1.034679    0.153206    6.191361
C         0.379847    1.291188    6.015855
C         1.412549    0.803147    5.001809
H         0.893239    0.374983    4.133262
N         2.223467    1.911583    4.492035
C         2.857103    1.880437    3.305002
C         3.504038    3.165901    2.843869
O         2.885791    0.872797    2.598089
C         2.344073   -0.268607    5.598386
N         2.719675   -1.224113    4.700928
C         3.705226   -2.218116    5.035594
O         2.738211   -0.236683    6.746691
H        -3.504112   -0.281370    0.948898
H        -2.592555   -0.465365    3.797682
H        -4.243435   -0.183923    3.235457
H        -3.371903    1.928573    3.905137
H        -3.432954    1.965733    2.142697
H        -0.823131    0.987355    2.673107
H        -1.111206    2.006358    4.035581
H        -0.110215    3.538958    2.552798
H        -1.819446    3.847565    2.268390
H        -0.344358    0.207239    1.031738
H         1.293120   -0.171033    1.488230
H        -0.220426   -0.918149   -1.067137
H         0.520018   -1.997632    0.125084
H         3.823527   -0.229155   -1.307482
H         3.289505   -0.559742    0.350155
H         2.499333    1.767984   -1.476879
H         3.204194    1.805404    0.156230
H         3.064732   -1.142928   -4.579939
H         1.981457   -0.510797   -6.742869
H        -0.455010   -0.875477   -7.048091
H        -2.591825   -1.618537   -6.216173
H        -3.996961   -2.591023   -4.418428
H        -2.936320   -3.229174   -2.228397
H        -0.560377   -2.990585   -1.885473
H        -1.832028    0.996284    0.392155
H        -3.729560   -0.272956   -2.341101
H        -2.285352   -0.273635   -1.339075
H        -0.224613    0.920498   -2.132429
H         1.006773    1.910143   -4.024785
H        -0.198964    2.538671   -6.113726
H        -2.654665    2.151535   -6.285716
H        -3.886057    1.137035   -4.382028
H        -1.076150   -3.437166    1.841580
H        -0.749456   -1.053125    3.837986
H         0.092327   -2.684997    3.816219
H         0.896660    1.425553    6.980443
H         0.043927    2.292588    5.685718
H         2.264946    2.750515    5.055672
H         3.543893    3.939878    3.622684
H         2.931532    3.545818    1.981884
H         4.522145    2.944013    2.496441
H         2.589601   -0.976353    3.724685
H         3.631696   -2.431213    6.109722
H         4.736531   -1.880893    4.826503
H         3.519867   -3.143755    4.471339
