-1 1
 OpenBabel05232414493D

 99102  0  0  1  0  0  0  0  0999 V2000
    0.6160   -0.9048    9.0478 O   0  0  0  0  0  0  0  0  0  0  0  0
    0.4780    0.0755    9.7833 C   0  0  0  0  0  0  0  0  0  0  0  0
   -0.4898    1.0315    9.4145 N   0  0  0  0  0  0  0  0  0  0  0  0
   -0.2888    2.4650    9.4688 C   0  0  0  0  0  0  0  0  0  0  0  0
   -1.5056    3.2484    9.9893 C   0  0  0  0  0  0  0  0  0  0  0  0
   -1.1307    4.5091   10.7709 C   0  0  0  0  0  0  0  0  0  0  0  0
   -0.2687    5.5195   10.0065 C   0  0  0  0  0  0  0  0  0  0  0  0
    0.5336    6.4215   10.9493 C   0  0  1  0  0  0  0  0  0  0  0  0
    1.1824    5.7660   11.5449 H   0  0  0  0  0  0  0  0  0  0  0  0
    1.3789    7.4533   10.1857 C   0  0  0  0  0  0  0  0  0  0  0  0
    2.5904    7.0504    9.6983 N   0  0  0  0  0  0  0  0  0  0  0  0
    3.5132    8.0678    9.2311 C   0  0  0  0  0  0  0  0  0  0  0  0
    4.5968    8.2967   10.2869 C   0  0  0  0  0  0  0  0  0  0  0  0
    5.2508    7.0422   10.6255 N   0  0  0  0  0  0  0  0  0  0  0  0
    4.3259    6.0052   11.0646 C   0  0  0  0  0  0  0  0  0  0  0  0
    3.2532    5.7890   10.0063 C   0  0  0  0  0  0  0  0  0  0  0  0
    6.5881    6.8290   10.7215 C   0  0  0  0  0  0  0  0  0  0  0  0
    7.5052    7.8879   10.1622 C   0  0  0  0  0  0  0  0  0  0  0  0
    7.4175    8.3067    8.8069 C   0  0  0  0  0  0  0  0  0  0  0  0
    8.3107    9.2144    8.2976 C   0  0  0  0  0  0  0  0  0  0  0  0
    8.5099    8.3804   10.9609 C   0  0  0  0  0  0  0  0  0  0  0  0
    9.4382    9.3359   10.4692 C   0  0  0  0  0  0  0  0  0  0  0  0
    9.3379    9.7636    9.1134 C   0  0  0  0  0  0  0  0  0  0  0  0
   10.2706   10.7173    8.6217 C   0  0  0  0  0  0  0  0  0  0  0  0
   11.2544   11.2228    9.4360 C   0  0  0  0  0  0  0  0  0  0  0  0
   11.3551   10.7970   10.7838 C   0  0  0  0  0  0  0  0  0  0  0  0
   10.4691    9.8761   11.2866 C   0  0  0  0  0  0  0  0  0  0  0  0
    7.0758    5.8268   11.2221 O   0  0  0  0  0  0  0  0  0  0  0  0
    0.9617    8.5901   10.0303 O   0  0  0  0  0  0  0  0  0  0  0  0
   -0.3263    7.1093   11.8865 N   0  0  0  0  0  0  0  0  0  0  0  0
    0.1343    7.6387   13.0541 C   0  0  0  0  0  0  0  0  0  0  0  0
    1.3955    7.2312   13.3003 O   0  0  0  0  0  0  0  0  0  0  0  0
    1.9621    7.5863   14.5544 C   0  0  0  0  0  0  0  0  0  0  0  0
    3.4120    7.1880   14.5147 C   0  0  0  0  0  0  0  0  0  0  0  0
    3.7964    5.8749   14.8033 C   0  0  0  0  0  0  0  0  0  0  0  0
    5.1261    5.4764   14.6676 C   0  0  0  0  0  0  0  0  0  0  0  0
    6.0844    6.3905   14.2305 C   0  0  0  0  0  0  0  0  0  0  0  0
    5.7127    7.7046   13.9475 C   0  0  0  0  0  0  0  0  0  0  0  0
    4.3844    8.1008   14.0925 C   0  0  0  0  0  0  0  0  0  0  0  0
   -0.4918    8.3656   13.7899 O   0  0  0  0  0  0  0  0  0  0  0  0
    1.2335    0.2572   11.0036 C   0  0  0  0  0  3  0  0  0  0  0  0
    0.9318    1.1193   12.0735 C   0  0  0  0  0  0  0  0  0  0  0  0
    1.8639    3.1619   12.1760 S   0  0  0  0  0  0  0  0  0  0  0  0
    3.5945    2.8847   12.6311 C   0  0  0  0  0  0  0  0  0  0  0  0
    4.5939    2.2448   11.6226 C   0  0  2  0  0  0  0  0  0  0  0  0
    4.5503    1.1502   11.7506 H   0  0  0  0  0  0  0  0  0  0  0  0
    5.9396    2.7159   11.8826 N   0  0  0  0  0  0  0  0  0  0  0  0
    6.5908    2.5782   13.0590 C   0  0  0  0  0  0  0  0  0  0  0  0
    7.9591    3.2356   13.0971 C   0  0  0  0  0  0  0  0  0  0  0  0
    6.1405    1.9587   14.0124 O   0  0  0  0  0  0  0  0  0  0  0  0
    4.3395    2.5397   10.1339 C   0  0  0  0  0  0  0  0  0  0  0  0
    3.3439    1.8551    9.5647 N   0  0  0  0  0  0  0  0  0  0  0  0
    2.9608    2.0724    8.1941 C   0  0  0  0  0  0  0  0  0  0  0  0
    5.0533    3.3276    9.5140 O   0  0  0  0  0  0  0  0  0  0  0  0
   -0.9490    0.7029    8.5715 H   0  0  0  0  0  0  0  0  0  0  0  0
   -0.0010    2.8495    8.4711 H   0  0  0  0  0  0  0  0  0  0  0  0
    0.5755    2.6703   10.1165 H   0  0  0  0  0  0  0  0  0  0  0  0
   -2.0670    2.5774   10.6586 H   0  0  0  0  0  0  0  0  0  0  0  0
   -2.1894    3.4956    9.1568 H   0  0  0  0  0  0  0  0  0  0  0  0
   -0.5751    4.2015   11.6716 H   0  0  0  0  0  0  0  0  0  0  0  0
   -2.0421    5.0070   11.1381 H   0  0  0  0  0  0  0  0  0  0  0  0
   -0.8834    6.1345    9.3248 H   0  0  0  0  0  0  0  0  0  0  0  0
    0.4608    4.9937    9.3713 H   0  0  0  0  0  0  0  0  0  0  0  0
    2.9480    8.9903    9.0543 H   0  0  0  0  0  0  0  0  0  0  0  0
    3.9747    7.7357    8.2852 H   0  0  0  0  0  0  0  0  0  0  0  0
    4.1152    8.6957   11.1980 H   0  0  0  0  0  0  0  0  0  0  0  0
    5.3276    9.0384    9.9453 H   0  0  0  0  0  0  0  0  0  0  0  0
    3.8529    6.3120   12.0124 H   0  0  0  0  0  0  0  0  0  0  0  0
    4.8980    5.0909   11.2308 H   0  0  0  0  0  0  0  0  0  0  0  0
    2.5505    5.0227   10.3575 H   0  0  0  0  0  0  0  0  0  0  0  0
    3.7244    5.3967    9.0918 H   0  0  0  0  0  0  0  0  0  0  0  0
    6.6375    7.8845    8.1690 H   0  0  0  0  0  0  0  0  0  0  0  0
    8.2442    9.5240    7.2515 H   0  0  0  0  0  0  0  0  0  0  0  0
    8.5997    8.0243   11.9902 H   0  0  0  0  0  0  0  0  0  0  0  0
   10.1915   11.0426    7.5812 H   0  0  0  0  0  0  0  0  0  0  0  0
   11.9648   11.9554    9.0465 H   0  0  0  0  0  0  0  0  0  0  0  0
   12.1424   11.2043   11.4220 H   0  0  0  0  0  0  0  0  0  0  0  0
   10.5441    9.5435   12.3250 H   0  0  0  0  0  0  0  0  0  0  0  0
   -1.1226    7.6089   11.5103 H   0  0  0  0  0  0  0  0  0  0  0  0
    1.4219    7.0616   15.3583 H   0  0  0  0  0  0  0  0  0  0  0  0
    1.8400    8.6675   14.7188 H   0  0  0  0  0  0  0  0  0  0  0  0
    3.0392    5.1454   15.1027 H   0  0  0  0  0  0  0  0  0  0  0  0
    5.4080    4.4408   14.8744 H   0  0  0  0  0  0  0  0  0  0  0  0
    7.1178    6.0698   14.0893 H   0  0  0  0  0  0  0  0  0  0  0  0
    6.4585    8.4222   13.5962 H   0  0  0  0  0  0  0  0  0  0  0  0
    4.0907    9.1283   13.8593 H   0  0  0  0  0  0  0  0  0  0  0  0
    2.0089   -0.5016   11.1426 H   0  0  0  0  0  0  0  0  0  0  0  0
    1.3118    0.8383   13.0598 H   0  0  0  0  0  0  0  0  0  0  0  0
   -0.0727    1.5530   12.1215 H   0  0  0  0  0  0  0  0  0  0  0  0
    3.6534    2.2922   13.5542 H   0  0  0  0  0  0  0  0  0  0  0  0
    3.9928    3.8760   12.8814 H   0  0  0  0  0  0  0  0  0  0  0  0
    6.3130    3.3254   11.1554 H   0  0  0  0  0  0  0  0  0  0  0  0
    8.7044    2.5463   12.6702 H   0  0  0  0  0  0  0  0  0  0  0  0
    8.2272    3.4220   14.1449 H   0  0  0  0  0  0  0  0  0  0  0  0
    7.9755    4.1699   12.5189 H   0  0  0  0  0  0  0  0  0  0  0  0
    2.7061    1.2922   10.1466 H   0  0  0  0  0  0  0  0  0  0  0  0
    2.4550    3.0446    8.0593 H   0  0  0  0  0  0  0  0  0  0  0  0
    2.2743    1.2694    7.8942 H   0  0  0  0  0  0  0  0  0  0  0  0
    3.8460    2.0621    7.5416 H   0  0  0  0  0  0  0  0  0  0  0  0
  1  2  2  0  0  0  0
  2 41  1  0  0  0  0
  3  4  1  0  0  0  0
  3  2  1  0  0  0  0
  4  5  1  0  0  0  0
  4 57  1  0  0  0  0
  5 58  1  0  0  0  0
  5  6  1  0  0  0  0
  6 61  1  0  0  0  0
  6 60  1  0  0  0  0
  7  6  1  0  0  0  0
  7  8  1  0  0  0  0
  8  9  1  1  0  0  0
  8 30  1  0  0  0  0
 10  8  1  0  0  0  0
 11 16  1  0  0  0  0
 11 10  1  0  0  0  0
 12 11  1  0  0  0  0
 12 13  1  0  0  0  0
 13 14  1  0  0  0  0
 13 66  1  0  0  0  0
 14 17  1  0  0  0  0
 14 15  1  0  0  0  0
 15 69  1  0  0  0  0
 15 68  1  0  0  0  0
 16 70  1  0  0  0  0
 16 15  1  0  0  0  0
 17 28  2  0  0  0  0
 18 17  1  0  0  0  0
 18 21  1  0  0  0  0
 19 18  2  0  0  0  0
 20 19  1  0  0  0  0
 20 23  2  0  0  0  0
 21 74  1  0  0  0  0
 22 21  2  0  0  0  0
 22 27  1  0  0  0  0
 23 22  1  0  0  0  0
 24 23  1  0  0  0  0
 24 25  2  0  0  0  0
 25 26  1  0  0  0  0
 26 27  2  0  0  0  0
 26 77  1  0  0  0  0
 27 78  1  0  0  0  0
 29 10  2  0  0  0  0
 30 31  1  0  0  0  0
 31 32  1  0  0  0  0
 31 40  2  0  0  0  0
 32 33  1  0  0  0  0
 33 81  1  0  0  0  0
 33 80  1  0  0  0  0
 34 33  1  0  0  0  0
 34 35  1  0  0  0  0
 35 82  1  0  0  0  0
 36 35  2  0  0  0  0
 36 83  1  0  0  0  0
 37 36  1  0  0  0  0
 38 39  1  0  0  0  0
 38 37  2  0  0  0  0
 39 34  2  0  0  0  0
 41 87  1  0  0  0  0
 41 42  1  0  0  0  0
 42 89  1  0  0  0  0
 42 43  1  0  0  0  0
 42 88  1  0  0  0  0
 43 44  1  0  0  0  0
 44 91  1  0  0  0  0
 44 90  1  0  0  0  0
 45 46  1  1  0  0  0
 45 47  1  0  0  0  0
 45 44  1  0  0  0  0
 47 48  1  0  0  0  0
 48 49  1  0  0  0  0
 48 50  2  0  0  0  0
 49 94  1  0  0  0  0
 51 45  1  0  0  0  0
 52 51  1  0  0  0  0
 52 96  1  0  0  0  0
 53 52  1  0  0  0  0
 54 51  2  0  0  0  0
 55  3  1  0  0  0  0
 56  4  1  0  0  0  0
 59  5  1  0  0  0  0
 62  7  1  0  0  0  0
 63  7  1  0  0  0  0
 64 12  1  0  0  0  0
 65 12  1  0  0  0  0
 67 13  1  0  0  0  0
 71 16  1  0  0  0  0
 72 19  1  0  0  0  0
 73 20  1  0  0  0  0
 75 24  1  0  0  0  0
 76 25  1  0  0  0  0
 79 30  1  0  0  0  0
 84 37  1  0  0  0  0
 85 38  1  0  0  0  0
 86 39  1  0  0  0  0
 92 47  1  0  0  0  0
 93 49  1  0  0  0  0
 95 49  1  0  0  0  0
 97 53  1  0  0  0  0
 98 53  1  0  0  0  0
 99 53  1  0  0  0  0
M  END
