75
-1 1
O         5.172430    5.496553    5.415061
C         4.386584    6.163134    4.707618
N         4.617739    6.163575    3.340404
C         3.653726    6.471000    2.305983
C         3.677333    7.924660    1.827279
C         2.634104    8.228014    0.745421
C         1.190856    7.865749    1.113306
C         0.727131    8.502886    2.418394
H         1.462226    8.279612    3.196846
C         0.555509   10.021304    2.267995
N         0.979001   10.830138    3.283920
C         1.479051   10.507426    4.595021
C         0.467723   10.500195    5.732055
O        -0.799954   10.558937    5.326959
O         0.803679   10.466807    6.886071
O         0.049345   10.498709    1.268227
N        -0.519866    7.927661    2.880984
C        -0.622508    7.534391    4.174939
O        -1.731613    6.805000    4.392377
C        -1.896542    6.381647    5.750532
C        -2.212392    7.546847    6.657853
C        -1.386324    7.837023    7.747089
C        -1.639851    8.950201    8.546024
C        -2.719504    9.787565    8.262121
C        -3.550436    9.503537    7.175229
C        -3.295289    8.387239    6.378608
O         0.163096    7.831602    5.043952
C         3.256168    6.895367    5.200877
C         2.884126    6.880225    6.536199
S         1.347961    5.131054    7.201537
C         2.331099    3.789675    6.480068
C         2.230749    3.671809    4.944719
H         2.515322    4.631758    4.500292
N         0.888524    3.398534    4.502035
C         0.238789    4.109884    3.562912
C        -1.171982    3.650182    3.249588
O         0.714004    5.076675    2.978550
C         3.172702    2.565909    4.449151
N         4.487952    2.874923    4.523793
C         5.511679    1.924983    4.184072
O         2.744913    1.484993    4.065765
H         5.412301    5.590020    3.090563
H         2.647220    6.192677    2.655253
H         3.853870    5.809324    1.445715
H         4.683284    8.163012    1.442623
H         3.535266    8.584238    2.699920
H         2.897428    7.678183   -0.174894
H         2.684387    9.298018    0.481398
H         1.081030    6.778078    1.237832
H         0.516131    8.192081    0.305530
H         0.721769   11.797901    3.121893
H         2.270606   11.216815    4.879563
H         1.943627    9.512669    4.617622
H        -1.362856   10.412491    6.105972
H        -1.133166    7.491131    2.206613
H        -0.987420    5.855993    6.090650
H        -2.737965    5.675320    5.713424
H        -0.516547    7.202997    7.936195
H        -0.967072    9.183789    9.372685
H        -2.908671   10.667740    8.881529
H        -4.395277   10.157381    6.944389
H        -3.928520    8.177247    5.512553
H         2.579383    7.362348    4.488701
H         2.155186    7.612847    6.881647
H         3.610494    6.530909    7.272182
H         2.037485    2.821845    6.924038
H         3.389934    3.951214    6.728256
H         0.463587    2.549593    4.848742
H        -1.841946    4.504060    3.421618
H        -1.504023    2.794000    3.852708
H        -1.227426    3.388517    2.183305
H         4.778729    3.795153    4.890600
H         5.025814    1.013695    3.811181
H         6.131680    1.664190    5.058480
H         6.180579    2.318283    3.400172
