-1 1
 OpenBabel05232414493D

 75 74  0  0  1  0  0  0  0  0999 V2000
    5.1724    5.4966    5.4151 O   0  0  0  0  0  0  0  0  0  0  0  0
    4.3866    6.1631    4.7076 C   0  0  0  0  0  0  0  0  0  0  0  0
    4.6177    6.1636    3.3404 N   0  0  0  0  0  0  0  0  0  0  0  0
    3.6537    6.4710    2.3060 C   0  0  0  0  0  0  0  0  0  0  0  0
    3.6773    7.9247    1.8273 C   0  0  0  0  0  0  0  0  0  0  0  0
    2.6341    8.2280    0.7454 C   0  0  0  0  0  0  0  0  0  0  0  0
    1.1909    7.8657    1.1133 C   0  0  0  0  0  0  0  0  0  0  0  0
    0.7271    8.5029    2.4184 C   0  0  1  0  0  0  0  0  0  0  0  0
    1.4622    8.2796    3.1968 H   0  0  0  0  0  0  0  0  0  0  0  0
    0.5555   10.0213    2.2680 C   0  0  0  0  0  0  0  0  0  0  0  0
    0.9790   10.8301    3.2839 N   0  0  0  0  0  0  0  0  0  0  0  0
    1.4791   10.5074    4.5950 C   0  0  0  0  0  0  0  0  0  0  0  0
    0.4677   10.5002    5.7321 C   0  0  0  0  0  0  0  0  0  0  0  0
   -0.8000   10.5589    5.3270 O   0  0  0  0  0  0  0  0  0  0  0  0
    0.8037   10.4668    6.8861 O   0  0  0  0  0  0  0  0  0  0  0  0
    0.0493   10.4987    1.2682 O   0  0  0  0  0  0  0  0  0  0  0  0
   -0.5199    7.9277    2.8810 N   0  0  0  0  0  0  0  0  0  0  0  0
   -0.6225    7.5344    4.1749 C   0  0  0  0  0  0  0  0  0  0  0  0
   -1.7316    6.8050    4.3924 O   0  0  0  0  0  0  0  0  0  0  0  0
   -1.8965    6.3816    5.7505 C   0  0  0  0  0  0  0  0  0  0  0  0
   -2.2124    7.5468    6.6579 C   0  0  0  0  0  0  0  0  0  0  0  0
   -1.3863    7.8370    7.7471 C   0  0  0  0  0  0  0  0  0  0  0  0
   -1.6399    8.9502    8.5460 C   0  0  0  0  0  0  0  0  0  0  0  0
   -2.7195    9.7876    8.2621 C   0  0  0  0  0  0  0  0  0  0  0  0
   -3.5504    9.5035    7.1752 C   0  0  0  0  0  0  0  0  0  0  0  0
   -3.2953    8.3872    6.3786 C   0  0  0  0  0  0  0  0  0  0  0  0
    0.1631    7.8316    5.0440 O   0  0  0  0  0  0  0  0  0  0  0  0
    3.2562    6.8954    5.2009 C   0  0  0  0  0  3  0  0  0  0  0  0
    2.8841    6.8802    6.5362 C   0  0  0  0  0  3  0  0  0  0  0  0
    1.3480    5.1311    7.2015 S   0  0  0  0  0  1  0  0  0  0  0  0
    2.3311    3.7897    6.4801 C   0  0  0  0  0  0  0  0  0  0  0  0
    2.2307    3.6718    4.9447 C   0  0  2  0  0  0  0  0  0  0  0  0
    2.5153    4.6318    4.5003 H   0  0  0  0  0  0  0  0  0  0  0  0
    0.8885    3.3985    4.5020 N   0  0  0  0  0  0  0  0  0  0  0  0
    0.2388    4.1099    3.5629 C   0  0  0  0  0  0  0  0  0  0  0  0
   -1.1720    3.6502    3.2496 C   0  0  0  0  0  0  0  0  0  0  0  0
    0.7140    5.0767    2.9785 O   0  0  0  0  0  0  0  0  0  0  0  0
    3.1727    2.5659    4.4492 C   0  0  0  0  0  0  0  0  0  0  0  0
    4.4880    2.8749    4.5238 N   0  0  0  0  0  0  0  0  0  0  0  0
    5.5117    1.9250    4.1841 C   0  0  0  0  0  0  0  0  0  0  0  0
    2.7449    1.4850    4.0658 O   0  0  0  0  0  0  0  0  0  0  0  0
    5.4123    5.5900    3.0906 H   0  0  0  0  0  0  0  0  0  0  0  0
    2.6472    6.1927    2.6553 H   0  0  0  0  0  0  0  0  0  0  0  0
    3.8539    5.8093    1.4457 H   0  0  0  0  0  0  0  0  0  0  0  0
    4.6833    8.1630    1.4426 H   0  0  0  0  0  0  0  0  0  0  0  0
    3.5353    8.5842    2.6999 H   0  0  0  0  0  0  0  0  0  0  0  0
    2.8974    7.6782   -0.1749 H   0  0  0  0  0  0  0  0  0  0  0  0
    2.6844    9.2980    0.4814 H   0  0  0  0  0  0  0  0  0  0  0  0
    1.0810    6.7781    1.2378 H   0  0  0  0  0  0  0  0  0  0  0  0
    0.5161    8.1921    0.3055 H   0  0  0  0  0  0  0  0  0  0  0  0
    0.7218   11.7979    3.1219 H   0  0  0  0  0  0  0  0  0  0  0  0
    2.2706   11.2168    4.8796 H   0  0  0  0  0  0  0  0  0  0  0  0
    1.9436    9.5127    4.6176 H   0  0  0  0  0  0  0  0  0  0  0  0
   -1.3629   10.4125    6.1060 H   0  0  0  0  0  0  0  0  0  0  0  0
   -1.1332    7.4911    2.2066 H   0  0  0  0  0  0  0  0  0  0  0  0
   -0.9874    5.8560    6.0907 H   0  0  0  0  0  0  0  0  0  0  0  0
   -2.7380    5.6753    5.7134 H   0  0  0  0  0  0  0  0  0  0  0  0
   -0.5165    7.2030    7.9362 H   0  0  0  0  0  0  0  0  0  0  0  0
   -0.9671    9.1838    9.3727 H   0  0  0  0  0  0  0  0  0  0  0  0
   -2.9087   10.6677    8.8815 H   0  0  0  0  0  0  0  0  0  0  0  0
   -4.3953   10.1574    6.9444 H   0  0  0  0  0  0  0  0  0  0  0  0
   -3.9285    8.1772    5.5126 H   0  0  0  0  0  0  0  0  0  0  0  0
    2.5794    7.3623    4.4887 H   0  0  0  0  0  0  0  0  0  0  0  0
    2.1552    7.6128    6.8816 H   0  0  0  0  0  0  0  0  0  0  0  0
    3.6105    6.5309    7.2722 H   0  0  0  0  0  0  0  0  0  0  0  0
    2.0375    2.8218    6.9240 H   0  0  0  0  0  0  0  0  0  0  0  0
    3.3899    3.9512    6.7283 H   0  0  0  0  0  0  0  0  0  0  0  0
    0.4636    2.5496    4.8487 H   0  0  0  0  0  0  0  0  0  0  0  0
   -1.8419    4.5041    3.4216 H   0  0  0  0  0  0  0  0  0  0  0  0
   -1.5040    2.7940    3.8527 H   0  0  0  0  0  0  0  0  0  0  0  0
   -1.2274    3.3885    2.1833 H   0  0  0  0  0  0  0  0  0  0  0  0
    4.7787    3.7952    4.8906 H   0  0  0  0  0  0  0  0  0  0  0  0
    5.0258    1.0137    3.8112 H   0  0  0  0  0  0  0  0  0  0  0  0
    6.1317    1.6642    5.0585 H   0  0  0  0  0  0  0  0  0  0  0  0
    6.1806    2.3183    3.4002 H   0  0  0  0  0  0  0  0  0  0  0  0
  2 28  1  0  0  0  0
  2  1  2  0  0  0  0
  3  2  1  0  0  0  0
  4 43  1  0  0  0  0
  4  3  1  0  0  0  0
  5  4  1  0  0  0  0
  5 46  1  0  0  0  0
  6  7  1  0  0  0  0
  6  5  1  0  0  0  0
  7 49  1  0  0  0  0
  7  8  1  0  0  0  0
  8 17  1  0  0  0  0
  8  9  1  1  0  0  0
 10  8  1  0  0  0  0
 10 11  1  0  0  0  0
 11 12  1  0  0  0  0
 12 53  1  0  0  0  0
 12 52  1  0  0  0  0
 12 13  1  0  0  0  0
 13 15  2  0  0  0  0
 14 13  1  0  0  0  0
 14 54  1  0  0  0  0
 16 10  2  0  0  0  0
 17 18  1  0  0  0  0
 18 19  1  0  0  0  0
 18 27  2  0  0  0  0
 19 20  1  0  0  0  0
 20 56  1  0  0  0  0
 20 21  1  0  0  0  0
 21 22  1  0  0  0  0
 22 58  1  0  0  0  0
 22 23  2  0  0  0  0
 23 59  1  0  0  0  0
 24 23  1  0  0  0  0
 24 60  1  0  0  0  0
 25 24  2  0  0  0  0
 26 21  2  0  0  0  0
 26 25  1  0  0  0  0
 28 29  1  0  0  0  0
 29 64  1  0  0  0  0
 29 65  1  0  0  0  0
 31 67  1  0  0  0  0
 31 66  1  0  0  0  0
 31 30  1  0  0  0  0
 32 33  1  6  0  0  0
 32 31  1  0  0  0  0
 34 68  1  0  0  0  0
 34 32  1  0  0  0  0
 35 34  1  0  0  0  0
 36 69  1  0  0  0  0
 36 35  1  0  0  0  0
 36 70  1  0  0  0  0
 37 35  2  0  0  0  0
 38 39  1  0  0  0  0
 38 32  1  0  0  0  0
 39 72  1  0  0  0  0
 40 39  1  0  0  0  0
 40 74  1  0  0  0  0
 41 38  2  0  0  0  0
 42  3  1  0  0  0  0
 44  4  1  0  0  0  0
 45  5  1  0  0  0  0
 47  6  1  0  0  0  0
 48  6  1  0  0  0  0
 50  7  1  0  0  0  0
 51 11  1  0  0  0  0
 55 17  1  0  0  0  0
 57 20  1  0  0  0  0
 61 25  1  0  0  0  0
 62 26  1  0  0  0  0
 63 28  1  0  0  0  0
 71 36  1  0  0  0  0
 73 40  1  0  0  0  0
 75 40  1  0  0  0  0
M  END
