78
-1 1
O        -0.430811    1.976274    3.054384
C        -0.143591    2.977879    2.330250
N         0.981667    3.742180    2.750827
C         2.148075    3.871506    1.892863
C         3.216710    2.784761    2.097582
C         2.686668    1.351377    2.101565
C         1.923811    0.930464    0.846702
C         1.395872   -0.514426    0.966406
H         1.488604   -0.832407    2.016528
C        -0.092046   -0.668584    0.601183
N        -0.958631   -0.042011    1.394539
C        -2.368989   -0.179686    1.162405
C        -2.804211   -1.632139    1.172643
O        -3.830116   -1.833438    0.331329
C        -4.307913   -3.159051    0.244692
O        -2.343593   -2.508284    1.856235
O        -0.429809   -1.384835   -0.347333
N         2.124935   -1.474102    0.160736
C         2.738748   -2.534283    0.741711
O         2.846453   -3.550880   -0.159244
C         3.051642   -4.831872    0.386514
C         1.789582   -5.430791    0.976281
C         0.572694   -4.744372    0.981493
C        -0.555531   -5.308372    1.579513
C        -0.486028   -6.577352    2.149996
C         0.720836   -7.278687    2.129969
C         1.850732   -6.704245    1.553713
O         3.140897   -2.607683    1.877794
C        -0.859658    3.361642    1.192257
C        -0.699019    4.614583    0.464752
S         0.400267    4.583789   -1.162837
C         0.059120    2.917645   -1.778211
C        -0.958722    2.816576   -2.934053
H        -1.845406    3.407627   -2.653433
N        -1.364372    1.451888   -3.146269
C        -2.340356    0.870121   -2.408233
C        -2.585150   -0.594516   -2.677160
O        -2.942908    1.484194   -1.538816
C        -0.396280    3.333147   -4.264126
N        -0.158526    4.664261   -4.300433
C         0.497103    5.301849   -5.412777
O        -0.182170    2.579097   -5.202167
H         1.232282    3.407317    3.677238
H         2.623761    4.858765    2.042935
H         1.813613    3.864487    0.847091
H         3.731720    2.961281    3.059800
H         3.987199    2.908245    1.314871
H         1.996139    1.234086    2.953245
H         3.520936    0.648924    2.270625
H         2.567864    0.990468   -0.045622
H         1.085847    1.622150    0.677256
H        -0.671569    0.671597    2.116989
H        -2.700890    0.293071    0.224864
H        -2.889655    0.333870    1.985494
H        -5.143629   -3.141304   -0.465098
H        -4.651650   -3.524960    1.224133
H        -3.519697   -3.834651   -0.120865
H         1.627794   -1.705601   -0.697388
H         3.832076   -4.790036    1.163228
H         3.416221   -5.454807   -0.443871
H         0.482882   -3.753510    0.530650
H        -1.476232   -4.721314    1.613160
H        -1.368723   -7.017172    2.620591
H         0.785890   -8.273606    2.578049
H         2.799692   -7.249854    1.559588
H        -1.698481    2.719951    0.914840
H        -0.169791    5.387626    1.041316
H        -1.649999    5.018058    0.094582
H        -0.343546    2.362887   -0.911943
H         1.004880    2.437805   -2.072235
H        -0.945415    0.987371   -3.944415
H        -2.302977   -0.895264   -3.696440
H        -3.641695   -0.819846   -2.488685
H        -1.975660   -1.158042   -1.951273
H        -0.223764    5.158124   -3.409143
H         0.536597    4.585194   -6.242773
H         1.527028    5.603689   -5.159963
H        -0.057733    6.195724   -5.738003
