-1 1
 OpenBabel05232414493D

 78 77  0  0  1  0  0  0  0  0999 V2000
    0.5374   -9.9284    1.6791 O   0  0  0  0  0  0  0  0  0  0  0  0
    0.8077   -8.9033    1.0108 C   0  0  0  0  0  0  0  0  0  0  0  0
    2.0009   -8.2376    1.3214 N   0  0  0  0  0  0  0  0  0  0  0  0
    2.9891   -7.9176    0.3036 C   0  0  0  0  0  0  0  0  0  0  0  0
    4.1284   -8.9475    0.1942 C   0  0  0  0  0  0  0  0  0  0  0  0
    3.6839  -10.4090    0.2612 C   0  0  0  0  0  0  0  0  0  0  0  0
    2.6498  -10.8412   -0.7755 C   0  0  0  0  0  0  0  0  0  0  0  0
    2.1487  -12.2678   -0.4937 C   0  0  1  0  0  0  0  0  0  0  0  0
    2.2327  -12.4582    0.5869 H   0  0  0  0  0  0  0  0  0  0  0  0
    0.6738  -12.4842   -0.8684 C   0  0  0  0  0  0  0  0  0  0  0  0
   -0.2211  -11.8834   -0.0799 N   0  0  0  0  0  0  0  0  0  0  0  0
   -1.6275  -12.0494   -0.3248 C   0  0  0  0  0  0  0  0  0  0  0  0
   -2.0230  -13.5135   -0.3606 C   0  0  0  0  0  0  0  0  0  0  0  0
   -3.0046  -13.7260   -1.2481 O   0  0  0  0  0  0  0  0  0  0  0  0
   -3.4401  -15.0630   -1.3804 C   0  0  0  0  0  0  0  0  0  0  0  0
   -1.5686  -14.3862    0.3314 O   0  0  0  0  0  0  0  0  0  0  0  0
    0.3670  -13.2094   -1.8165 O   0  0  0  0  0  0  0  0  0  0  0  0
    2.9181  -13.2868   -1.1776 N   0  0  0  0  0  0  0  0  0  0  0  0
    3.4944  -14.3029   -0.4879 C   0  0  0  0  0  0  0  0  0  0  0  0
    3.6709  -15.3711   -1.3130 O   0  0  0  0  0  0  0  0  0  0  0  0
    3.8874  -16.6094   -0.6793 C   0  0  0  0  0  0  0  0  0  0  0  0
    2.6134  -17.2237   -0.1340 C   0  0  0  0  0  0  0  0  0  0  0  0
    1.3769  -16.5812   -0.2320 C   0  0  0  0  0  0  0  0  0  0  0  0
    0.2336  -17.1577    0.3237 C   0  0  0  0  0  0  0  0  0  0  0  0
    0.3103  -18.3960    0.9572 C   0  0  0  0  0  0  0  0  0  0  0  0
    1.5388  -19.0536    1.0424 C   0  0  0  0  0  0  0  0  0  0  0  0
    2.6817  -18.4664    0.5063 C   0  0  0  0  0  0  0  0  0  0  0  0
    3.8184  -14.2975    0.6749 O   0  0  0  0  0  0  0  0  0  0  0  0
   -0.0520   -8.3870   -0.0081 C   0  0  0  0  0  3  0  0  0  0  0  0
    0.0043   -7.0907   -0.5437 C   0  0  0  0  0  3  0  0  0  0  0  0
    1.0815   -6.8664   -2.5264 S   0  0  0  0  0  1  0  0  0  0  0  0
    0.8372   -8.5553   -3.1236 C   0  0  0  0  0  0  0  0  0  0  0  0
   -0.1698   -8.7129   -4.2832 C   0  0  2  0  0  0  0  0  0  0  0  0
   -1.0821   -8.1607   -4.0037 H   0  0  0  0  0  0  0  0  0  0  0  0
   -0.5127  -10.0949   -4.5099 N   0  0  0  0  0  0  0  0  0  0  0  0
   -1.4611  -10.7369   -3.7919 C   0  0  0  0  0  0  0  0  0  0  0  0
   -1.6875  -12.1877   -4.1490 C   0  0  0  0  0  0  0  0  0  0  0  0
   -2.0638  -10.1934   -2.8749 O   0  0  0  0  0  0  0  0  0  0  0  0
    0.3610   -8.1706   -5.6184 C   0  0  0  0  0  0  0  0  0  0  0  0
    0.5804   -6.8388   -5.6430 N   0  0  0  0  0  0  0  0  0  0  0  0
    1.2117   -6.1836   -6.7582 C   0  0  0  0  0  0  0  0  0  0  0  0
    0.5587   -8.9117   -6.5730 O   0  0  0  0  0  0  0  0  0  0  0  0
    2.3988   -8.6680    2.1508 H   0  0  0  0  0  0  0  0  0  0  0  0
    3.4297   -6.9226    0.4933 H   0  0  0  0  0  0  0  0  0  0  0  0
    2.4762   -7.8251   -0.6629 H   0  0  0  0  0  0  0  0  0  0  0  0
    4.8552   -8.7798    1.0096 H   0  0  0  0  0  0  0  0  0  0  0  0
    4.6750   -8.7500   -0.7444 H   0  0  0  0  0  0  0  0  0  0  0  0
    3.2425  -10.5952    1.2545 H   0  0  0  0  0  0  0  0  0  0  0  0
    4.5653  -11.0690    0.1951 H   0  0  0  0  0  0  0  0  0  0  0  0
    3.0665  -10.8053   -1.7953 H   0  0  0  0  0  0  0  0  0  0  0  0
    1.7977  -10.1485   -0.7696 H   0  0  0  0  0  0  0  0  0  0  0  0
    0.0714  -11.2202    0.6678 H   0  0  0  0  0  0  0  0  0  0  0  0
   -1.9593  -11.5505   -1.2489 H   0  0  0  0  0  0  0  0  0  0  0  0
   -2.1701  -11.5805    0.5102 H   0  0  0  0  0  0  0  0  0  0  0  0
   -4.2384  -15.0554   -2.1320 H   0  0  0  0  0  0  0  0  0  0  0  0
   -3.8233  -15.4544   -0.4258 H   0  0  0  0  0  0  0  0  0  0  0  0
   -2.6150  -15.7095   -1.7153 H   0  0  0  0  0  0  0  0  0  0  0  0
    2.4912  -13.5684   -2.0576 H   0  0  0  0  0  0  0  0  0  0  0  0
    4.6151  -16.4912    0.1395 H   0  0  0  0  0  0  0  0  0  0  0  0
    4.3264  -17.2640   -1.4468 H   0  0  0  0  0  0  0  0  0  0  0  0
    1.2837  -15.6154   -0.7335 H   0  0  0  0  0  0  0  0  0  0  0  0
   -0.7061  -16.6035    0.2729 H   0  0  0  0  0  0  0  0  0  0  0  0
   -0.5844  -18.8456    1.3945 H   0  0  0  0  0  0  0  0  0  0  0  0
    1.6093  -20.0240    1.5406 H   0  0  0  0  0  0  0  0  0  0  0  0
    3.6459  -18.9773    0.5929 H   0  0  0  0  0  0  0  0  0  0  0  0
   -0.8922   -9.0298   -0.2787 H   0  0  0  0  0  0  0  0  0  0  0  0
    0.6300   -6.3527   -0.0324 H   0  0  0  0  0  0  0  0  0  0  0  0
   -0.9256   -6.6809   -0.9406 H   0  0  0  0  0  0  0  0  0  0  0  0
    0.4455   -9.1346   -2.2653 H   0  0  0  0  0  0  0  0  0  0  0  0
    1.7984   -9.0091   -3.4141 H   0  0  0  0  0  0  0  0  0  0  0  0
   -0.1192  -10.4998   -5.3534 H   0  0  0  0  0  0  0  0  0  0  0  0
   -1.3922  -12.4253   -5.1810 H   0  0  0  0  0  0  0  0  0  0  0  0
   -2.7454  -12.4310   -3.9897 H   0  0  0  0  0  0  0  0  0  0  0  0
   -1.0879  -12.7957   -3.4521 H   0  0  0  0  0  0  0  0  0  0  0  0
    0.5541   -6.3678   -4.7329 H   0  0  0  0  0  0  0  0  0  0  0  0
    1.1995   -6.8698   -7.6145 H   0  0  0  0  0  0  0  0  0  0  0  0
    2.2595   -5.9192   -6.5365 H   0  0  0  0  0  0  0  0  0  0  0  0
    0.6719   -5.2628   -7.0286 H   0  0  0  0  0  0  0  0  0  0  0  0
  2  3  1  0  0  0  0
  2  1  2  0  0  0  0
  3 43  1  0  0  0  0
  4 44  1  0  0  0  0
  4  3  1  0  0  0  0
  5  6  1  0  0  0  0
  5  4  1  0  0  0  0
  5 46  1  0  0  0  0
  6 48  1  0  0  0  0
  7 51  1  0  0  0  0
  7  8  1  0  0  0  0
  7  6  1  0  0  0  0
  8  9  1  1  0  0  0
 10  8  1  0  0  0  0
 10 11  1  0  0  0  0
 11 52  1  0  0  0  0
 12 11  1  0  0  0  0
 12 54  1  0  0  0  0
 13 12  1  0  0  0  0
 13 16  2  0  0  0  0
 14 13  1  0  0  0  0
 15 14  1  0  0  0  0
 15 56  1  0  0  0  0
 17 10  2  0  0  0  0
 18  8  1  0  0  0  0
 18 19  1  0  0  0  0
 19 28  2  0  0  0  0
 20 21  1  0  0  0  0
 20 19  1  0  0  0  0
 21 22  1  0  0  0  0
 21 59  1  0  0  0  0
 22 27  1  0  0  0  0
 23 22  2  0  0  0  0
 23 24  1  0  0  0  0
 24 25  2  0  0  0  0
 25 26  1  0  0  0  0
 25 63  1  0  0  0  0
 26 64  1  0  0  0  0
 27 65  1  0  0  0  0
 27 26  2  0  0  0  0
 29  2  1  0  0  0  0
 30 67  1  0  0  0  0
 30 29  1  0  0  0  0
 32 31  1  0  0  0  0
 32 69  1  0  0  0  0
 33 34  1  1  0  0  0
 33 32  1  0  0  0  0
 35 33  1  0  0  0  0
 35 36  1  0  0  0  0
 36 38  2  0  0  0  0
 37 73  1  0  0  0  0
 37 36  1  0  0  0  0
 37 74  1  0  0  0  0
 39 33  1  0  0  0  0
 40 39  1  0  0  0  0
 40 75  1  0  0  0  0
 41 77  1  0  0  0  0
 41 40  1  0  0  0  0
 42 39  2  0  0  0  0
 45  4  1  0  0  0  0
 47  5  1  0  0  0  0
 49  6  1  0  0  0  0
 50  7  1  0  0  0  0
 53 12  1  0  0  0  0
 55 15  1  0  0  0  0
 57 15  1  0  0  0  0
 58 18  1  0  0  0  0
 60 21  1  0  0  0  0
 61 23  1  0  0  0  0
 62 24  1  0  0  0  0
 66 29  1  0  0  0  0
 68 30  1  0  0  0  0
 70 32  1  0  0  0  0
 71 35  1  0  0  0  0
 72 37  1  0  0  0  0
 76 41  1  0  0  0  0
 78 41  1  0  0  0  0
M  END
