-1 1
 OpenBabel05192410563D

 78 78  0  0  1  0  0  0  0  0999 V2000
   -0.4308    1.9763    3.0544 O   0  0  0  0  0  0  0  0  0  0  0  0
   -0.1436    2.9779    2.3302 C   0  0  0  0  0  0  0  0  0  0  0  0
    0.9817    3.7422    2.7508 N   0  0  0  0  0  0  0  0  0  0  0  0
    2.1481    3.8715    1.8929 C   0  0  0  0  0  0  0  0  0  0  0  0
    3.2167    2.7848    2.0976 C   0  0  0  0  0  0  0  0  0  0  0  0
    2.6867    1.3514    2.1016 C   0  0  0  0  0  0  0  0  0  0  0  0
    1.9238    0.9305    0.8467 C   0  0  0  0  0  0  0  0  0  0  0  0
    1.3959   -0.5144    0.9664 C   0  0  1  0  0  0  0  0  0  0  0  0
    1.4886   -0.8324    2.0165 H   0  0  0  0  0  0  0  0  0  0  0  0
   -0.0920   -0.6686    0.6012 C   0  0  0  0  0  0  0  0  0  0  0  0
   -0.9586   -0.0420    1.3945 N   0  0  0  0  0  0  0  0  0  0  0  0
   -2.3690   -0.1797    1.1624 C   0  0  0  0  0  0  0  0  0  0  0  0
   -2.8042   -1.6321    1.1726 C   0  0  0  0  0  0  0  0  0  0  0  0
   -3.8301   -1.8334    0.3313 O   0  0  0  0  0  0  0  0  0  0  0  0
   -4.3079   -3.1591    0.2447 C   0  0  0  0  0  0  0  0  0  0  0  0
   -2.3436   -2.5083    1.8562 O   0  0  0  0  0  0  0  0  0  0  0  0
   -0.4298   -1.3848   -0.3473 O   0  0  0  0  0  0  0  0  0  0  0  0
    2.1249   -1.4741    0.1607 N   0  0  0  0  0  0  0  0  0  0  0  0
    2.7387   -2.5343    0.7417 C   0  0  0  0  0  0  0  0  0  0  0  0
    2.8465   -3.5509   -0.1592 O   0  0  0  0  0  0  0  0  0  0  0  0
    3.0516   -4.8319    0.3865 C   0  0  0  0  0  0  0  0  0  0  0  0
    1.7896   -5.4308    0.9763 C   0  0  0  0  0  0  0  0  0  0  0  0
    0.5727   -4.7444    0.9815 C   0  0  0  0  0  0  0  0  0  0  0  0
   -0.5555   -5.3084    1.5795 C   0  0  0  0  0  0  0  0  0  0  0  0
   -0.4860   -6.5774    2.1500 C   0  0  0  0  0  0  0  0  0  0  0  0
    0.7208   -7.2787    2.1300 C   0  0  0  0  0  0  0  0  0  0  0  0
    1.8507   -6.7042    1.5537 C   0  0  0  0  0  0  0  0  0  0  0  0
    3.1409   -2.6077    1.8778 O   0  0  0  0  0  0  0  0  0  0  0  0
   -0.8597    3.3616    1.1923 C   0  0  0  0  0  3  0  0  0  0  0  0
   -0.6990    4.6146    0.4648 C   0  0  0  0  0  0  0  0  0  0  0  0
    0.4003    4.5838   -1.1628 S   0  0  0  0  0  0  0  0  0  0  0  0
    0.0591    2.9176   -1.7782 C   0  0  0  0  0  0  0  0  0  0  0  0
   -0.9587    2.8166   -2.9341 C   0  0  2  0  0  0  0  0  0  0  0  0
   -1.8454    3.4076   -2.6534 H   0  0  0  0  0  0  0  0  0  0  0  0
   -1.3644    1.4519   -3.1463 N   0  0  0  0  0  0  0  0  0  0  0  0
   -2.3404    0.8701   -2.4082 C   0  0  0  0  0  0  0  0  0  0  0  0
   -2.5852   -0.5945   -2.6772 C   0  0  0  0  0  0  0  0  0  0  0  0
   -2.9429    1.4842   -1.5388 O   0  0  0  0  0  0  0  0  0  0  0  0
   -0.3963    3.3331   -4.2641 C   0  0  0  0  0  0  0  0  0  0  0  0
   -0.1585    4.6643   -4.3004 N   0  0  0  0  0  0  0  0  0  0  0  0
    0.4971    5.3018   -5.4128 C   0  0  0  0  0  0  0  0  0  0  0  0
   -0.1822    2.5791   -5.2022 O   0  0  0  0  0  0  0  0  0  0  0  0
    1.2323    3.4073    3.6772 H   0  0  0  0  0  0  0  0  0  0  0  0
    2.6238    4.8588    2.0429 H   0  0  0  0  0  0  0  0  0  0  0  0
    1.8136    3.8645    0.8471 H   0  0  0  0  0  0  0  0  0  0  0  0
    3.7317    2.9613    3.0598 H   0  0  0  0  0  0  0  0  0  0  0  0
    3.9872    2.9082    1.3149 H   0  0  0  0  0  0  0  0  0  0  0  0
    1.9961    1.2341    2.9532 H   0  0  0  0  0  0  0  0  0  0  0  0
    3.5209    0.6489    2.2706 H   0  0  0  0  0  0  0  0  0  0  0  0
    2.5679    0.9905   -0.0456 H   0  0  0  0  0  0  0  0  0  0  0  0
    1.0858    1.6221    0.6773 H   0  0  0  0  0  0  0  0  0  0  0  0
   -0.6716    0.6716    2.1170 H   0  0  0  0  0  0  0  0  0  0  0  0
   -2.7009    0.2931    0.2249 H   0  0  0  0  0  0  0  0  0  0  0  0
   -2.8897    0.3339    1.9855 H   0  0  0  0  0  0  0  0  0  0  0  0
   -5.1436   -3.1413   -0.4651 H   0  0  0  0  0  0  0  0  0  0  0  0
   -4.6517   -3.5250    1.2241 H   0  0  0  0  0  0  0  0  0  0  0  0
   -3.5197   -3.8347   -0.1209 H   0  0  0  0  0  0  0  0  0  0  0  0
    1.6278   -1.7056   -0.6974 H   0  0  0  0  0  0  0  0  0  0  0  0
    3.8321   -4.7900    1.1632 H   0  0  0  0  0  0  0  0  0  0  0  0
    3.4162   -5.4548   -0.4439 H   0  0  0  0  0  0  0  0  0  0  0  0
    0.4829   -3.7535    0.5306 H   0  0  0  0  0  0  0  0  0  0  0  0
   -1.4762   -4.7213    1.6132 H   0  0  0  0  0  0  0  0  0  0  0  0
   -1.3687   -7.0172    2.6206 H   0  0  0  0  0  0  0  0  0  0  0  0
    0.7859   -8.2736    2.5780 H   0  0  0  0  0  0  0  0  0  0  0  0
    2.7997   -7.2499    1.5596 H   0  0  0  0  0  0  0  0  0  0  0  0
   -1.6985    2.7200    0.9148 H   0  0  0  0  0  0  0  0  0  0  0  0
   -0.1698    5.3876    1.0413 H   0  0  0  0  0  0  0  0  0  0  0  0
   -1.6500    5.0181    0.0946 H   0  0  0  0  0  0  0  0  0  0  0  0
   -0.3435    2.3629   -0.9119 H   0  0  0  0  0  0  0  0  0  0  0  0
    1.0049    2.4378   -2.0722 H   0  0  0  0  0  0  0  0  0  0  0  0
   -0.9454    0.9874   -3.9444 H   0  0  0  0  0  0  0  0  0  0  0  0
   -2.3030   -0.8953   -3.6964 H   0  0  0  0  0  0  0  0  0  0  0  0
   -3.6417   -0.8198   -2.4887 H   0  0  0  0  0  0  0  0  0  0  0  0
   -1.9757   -1.1580   -1.9513 H   0  0  0  0  0  0  0  0  0  0  0  0
   -0.2238    5.1581   -3.4091 H   0  0  0  0  0  0  0  0  0  0  0  0
    0.5366    4.5852   -6.2428 H   0  0  0  0  0  0  0  0  0  0  0  0
    1.5270    5.6037   -5.1600 H   0  0  0  0  0  0  0  0  0  0  0  0
   -0.0577    6.1957   -5.7380 H   0  0  0  0  0  0  0  0  0  0  0  0
  2  3  1  0  0  0  0
  2  1  2  0  0  0  0
  3 43  1  0  0  0  0
  4 44  1  0  0  0  0
  4  5  1  0  0  0  0
  4  3  1  0  0  0  0
  5  6  1  0  0  0  0
  5 46  1  0  0  0  0
  6 49  1  0  0  0  0
  6 48  1  0  0  0  0
  7  8  1  0  0  0  0
  7  6  1  0  0  0  0
  8  9  1  1  0  0  0
 10  8  1  0  0  0  0
 10 11  1  0  0  0  0
 11 52  1  0  0  0  0
 12 13  1  0  0  0  0
 12 11  1  0  0  0  0
 12 54  1  0  0  0  0
 13 16  2  0  0  0  0
 14 13  1  0  0  0  0
 15 14  1  0  0  0  0
 15 56  1  0  0  0  0
 17 10  2  0  0  0  0
 18 19  1  0  0  0  0
 18  8  1  0  0  0  0
 19 28  2  0  0  0  0
 20 21  1  0  0  0  0
 20 19  1  0  0  0  0
 21 22  1  0  0  0  0
 21 59  1  0  0  0  0
 22 23  2  0  0  0  0
 22 27  1  0  0  0  0
 23 24  1  0  0  0  0
 24 62  1  0  0  0  0
 24 25  2  0  0  0  0
 25 63  1  0  0  0  0
 26 25  1  0  0  0  0
 26 64  1  0  0  0  0
 27 65  1  0  0  0  0
 27 26  2  0  0  0  0
 29  2  1  0  0  0  0
 30 67  1  0  0  0  0
 30 29  1  0  0  0  0
 31 30  1  0  0  0  0
 32 31  1  0  0  0  0
 32 69  1  0  0  0  0
 33 34  1  1  0  0  0
 33 32  1  0  0  0  0
 35 33  1  0  0  0  0
 35 36  1  0  0  0  0
 36 38  2  0  0  0  0
 37 73  1  0  0  0  0
 37 36  1  0  0  0  0
 37 74  1  0  0  0  0
 39 33  1  0  0  0  0
 40 39  1  0  0  0  0
 40 75  1  0  0  0  0
 41 77  1  0  0  0  0
 41 40  1  0  0  0  0
 42 39  2  0  0  0  0
 45  4  1  0  0  0  0
 47  5  1  0  0  0  0
 50  7  1  0  0  0  0
 51  7  1  0  0  0  0
 53 12  1  0  0  0  0
 55 15  1  0  0  0  0
 57 15  1  0  0  0  0
 58 18  1  0  0  0  0
 60 21  1  0  0  0  0
 61 23  1  0  0  0  0
 66 29  1  0  0  0  0
 68 30  1  0  0  0  0
 70 32  1  0  0  0  0
 71 35  1  0  0  0  0
 72 37  1  0  0  0  0
 76 41  1  0  0  0  0
 78 41  1  0  0  0  0
M  END
