86
-1 1
O         1.522373  -11.739638   -1.113661
C         1.351878  -10.525641   -1.150799
N         0.665410   -9.912490   -0.100280
C        -0.290870   -8.846839   -0.317411
C        -1.565707   -9.276675   -1.061942
C        -2.257120   -8.120967   -1.790085
C        -1.520747   -7.557448   -3.013941
C        -1.547565   -8.448023   -4.263847
H        -2.581989   -8.794834   -4.406577
C        -1.321855   -7.621907   -5.549857
N        -0.049684   -7.411855   -6.003624
C         1.194024   -7.572980   -5.270470
C         2.159240   -8.490597   -6.019017
N         2.326703   -8.020775   -7.383688
C         1.086284   -7.825653   -8.110712
C         0.148999   -6.896664   -7.347542
C         3.523880   -7.822336   -8.026564
C         4.781007   -8.091039   -7.231213
O         3.568604   -7.448036   -9.186431
O        -2.298385   -7.203700   -6.146429
N        -0.676972   -9.599219   -4.143908
C        -0.561859  -10.553888   -5.095498
O        -1.535984  -10.435646   -6.022159
C        -1.509263  -11.340426   -7.119404
C        -2.337523  -12.574137   -6.854862
C        -3.623107  -12.693855   -7.390063
C        -4.398291  -13.824582   -7.134276
C        -3.893071  -14.847079   -6.333215
C        -2.611954  -14.734148   -5.791553
C        -1.836573  -13.606524   -6.051301
O         0.305714  -11.401288   -5.135578
C         1.840849   -9.678927   -2.243834
C         2.448445   -8.454978   -2.043424
S         4.826974   -8.479905   -1.443303
C         5.499911   -8.138077   -3.099570
C         6.299886   -9.295407   -3.736688
H         7.007233   -9.660463   -2.971925
N         7.026782   -8.872045   -4.912973
C         8.106178   -8.057506   -4.905169
C         8.702204   -7.785677   -6.278432
O         8.561663   -7.538463   -3.900998
C         5.424544  -10.475671   -4.202076
N         4.683544  -11.067292   -3.261718
C         3.796242  -12.167836   -3.567795
O         5.434875  -10.836696   -5.381424
H         0.364225  -10.621202    0.561731
H         0.203602   -8.041317   -0.872501
H        -0.556517   -8.411683    0.660382
H        -2.272354   -9.732530   -0.348036
H        -1.313635  -10.071029   -1.779426
H        -2.413369   -7.293285   -1.075629
H        -3.264376   -8.436857   -2.109300
H        -0.478706   -7.301706   -2.758295
H        -2.007005   -6.612485   -3.300712
H         1.019435   -7.959459   -4.265513
H         1.663833   -6.577514   -5.161044
H         1.770899   -9.524316   -6.014430
H         3.120851   -8.510351   -5.493273
H         0.583535   -8.800878   -8.252327
H         1.340689   -7.416915   -9.095762
H        -0.830723   -6.825858   -7.833951
H         0.586275   -5.882738   -7.300307
H         4.867541   -7.424883   -6.359423
H         5.635657   -7.913137   -7.893873
H         4.814666   -9.124791   -6.853495
H         0.086017   -9.592571   -3.455984
H        -0.466455  -11.613787   -7.334075
H        -1.919909  -10.776437   -7.967380
H        -4.023117  -11.889710   -8.013982
H        -5.401216  -13.905251   -7.560188
H        -4.498481  -15.733533   -6.129155
H        -2.211526  -15.531236   -5.161002
H        -0.837031  -13.503837   -5.622454
H         2.075687  -10.238722   -3.152970
H         2.253848   -7.877441   -1.138366
H         2.766534   -7.857018   -2.900421
H         6.188345   -7.284499   -3.038589
H         4.686325   -7.851185   -3.795770
H         6.771355   -9.397870   -5.745466
H         9.796828   -7.785507   -6.194003
H         8.392348   -6.780144   -6.600955
H         8.387628   -8.509353   -7.043457
H         4.628139  -10.590130   -2.352281
H         3.177525  -11.943978   -4.450579
H         3.128973  -12.331822   -2.711400
H         4.367253  -13.086066   -3.782652
