-1 1
 OpenBabel05232413493D

 86 86  0  0  1  0  0  0  0  0999 V2000
   -2.7901   -3.8315    3.3539 O   0  0  0  0  0  0  0  0  0  0  0  0
   -2.1672   -2.8147    3.0866 C   0  0  0  0  0  0  0  0  0  0  0  0
   -2.2649   -1.7017    3.8832 N   0  0  0  0  0  0  0  0  0  0  0  0
   -2.1187   -0.3137    3.4693 C   0  0  0  0  0  0  0  0  0  0  0  0
   -3.3492    0.1911    2.7153 C   0  0  0  0  0  0  0  0  0  0  0  0
   -3.3882    1.6983    2.4621 C   0  0  0  0  0  0  0  0  0  0  0  0
   -2.3452    2.2597    1.4904 C   0  0  0  0  0  0  0  0  0  0  0  0
   -2.3681    1.5626    0.1161 C   0  0  1  0  0  0  0  0  0  0  0  0
   -3.3477    1.0781   -0.0100 H   0  0  0  0  0  0  0  0  0  0  0  0
   -2.4127    2.5773   -1.0404 C   0  0  0  0  0  0  0  0  0  0  0  0
   -1.2621    3.0684   -1.5856 N   0  0  0  0  0  0  0  0  0  0  0  0
    0.1101    2.8953   -1.1374 C   0  0  0  0  0  0  0  0  0  0  0  0
    0.9343    2.1409   -2.1805 C   0  0  0  0  0  0  0  0  0  0  0  0
    0.7812    2.7484   -3.4970 N   0  0  0  0  0  0  0  0  0  0  0  0
   -0.5834    3.0298   -3.9116 C   0  0  0  0  0  0  0  0  0  0  0  0
   -1.3394    3.7983   -2.8376 C   0  0  0  0  0  0  0  0  0  0  0  0
    1.7782    2.8336   -4.4341 C   0  0  0  0  0  0  0  0  0  0  0  0
    3.1451    2.3149   -4.0389 C   0  0  0  0  0  0  0  0  0  0  0  0
    1.5742    3.2812   -5.5515 O   0  0  0  0  0  0  0  0  0  0  0  0
   -3.5125    2.9210   -1.4455 O   0  0  0  0  0  0  0  0  0  0  0  0
   -1.3372    0.5521    0.0334 N   0  0  0  0  0  0  0  0  0  0  0  0
   -1.2958   -0.4180   -0.8975 C   0  0  0  0  0  0  0  0  0  0  0  0
   -2.3934   -0.3766   -1.7035 O   0  0  0  0  0  0  0  0  0  0  0  0
   -2.6721   -1.5714   -2.4065 C   0  0  0  0  0  0  0  0  0  0  0  0
   -3.1799   -2.6427   -1.4676 C   0  0  0  0  0  0  0  0  0  0  0  0
   -4.0808   -2.3062   -0.4502 C   0  0  0  0  0  0  0  0  0  0  0  0
   -4.5093   -3.2652    0.4629 C   0  0  0  0  0  0  0  0  0  0  0  0
   -4.0512   -4.5792    0.3657 C   0  0  0  0  0  0  0  0  0  0  0  0
   -3.1681   -4.9254   -0.6543 C   0  0  0  0  0  0  0  0  0  0  0  0
   -2.7291   -3.9596   -1.5613 C   0  0  0  0  0  0  0  0  0  0  0  0
   -0.4142   -1.2389   -1.0417 O   0  0  0  0  0  0  0  0  0  0  0  0
   -1.2448   -2.7623    1.9154 C   0  0  0  0  0  0  0  0  0  0  0  0
   -0.0009   -2.2843    1.9562 C   0  0  0  0  0  0  0  0  0  0  0  0
    1.1499    1.1121    2.0876 S   0  0  0  0  0  1  0  0  0  0  0  0
    2.2313    0.4539    0.7676 C   0  0  0  0  0  0  0  0  0  0  0  0
    3.7128    0.3323    1.1664 C   0  0  2  0  0  0  0  0  0  0  0  0
    3.9857    1.2609    1.6992 H   0  0  0  0  0  0  0  0  0  0  0  0
    4.5858    0.1517    0.0250 N   0  0  0  0  0  0  0  0  0  0  0  0
    4.8117    1.0744   -0.9268 C   0  0  0  0  0  0  0  0  0  0  0  0
    5.8018    0.6644   -2.0037 C   0  0  0  0  0  0  0  0  0  0  0  0
    4.2527    2.1647   -0.9679 O   0  0  0  0  0  0  0  0  0  0  0  0
    3.9989   -0.8666    2.0888 C   0  0  0  0  0  0  0  0  0  0  0  0
    3.2140   -0.9498    3.1752 N   0  0  0  0  0  0  0  0  0  0  0  0
    3.2870   -2.0549    4.0940 C   0  0  0  0  0  0  0  0  0  0  0  0
    4.8893   -1.6690    1.8199 O   0  0  0  0  0  0  0  0  0  0  0  0
   -2.9397   -1.8614    4.6255 H   0  0  0  0  0  0  0  0  0  0  0  0
   -1.2085   -0.1918    2.8659 H   0  0  0  0  0  0  0  0  0  0  0  0
   -1.9582    0.2902    4.3776 H   0  0  0  0  0  0  0  0  0  0  0  0
   -4.2484   -0.0873    3.2935 H   0  0  0  0  0  0  0  0  0  0  0  0
   -3.4205   -0.3623    1.7629 H   0  0  0  0  0  0  0  0  0  0  0  0
   -3.2931    2.2283    3.4263 H   0  0  0  0  0  0  0  0  0  0  0  0
   -4.3880    1.9539    2.0713 H   0  0  0  0  0  0  0  0  0  0  0  0
   -1.3278    2.1949    1.9081 H   0  0  0  0  0  0  0  0  0  0  0  0
   -2.5556    3.3310    1.3526 H   0  0  0  0  0  0  0  0  0  0  0  0
    0.1746    2.3980   -0.1629 H   0  0  0  0  0  0  0  0  0  0  0  0
    0.5480    3.9003   -1.0033 H   0  0  0  0  0  0  0  0  0  0  0  0
    0.6200    1.0804   -2.2020 H   0  0  0  0  0  0  0  0  0  0  0  0
    1.9869    2.1725   -1.8734 H   0  0  0  0  0  0  0  0  0  0  0  0
   -1.1172    2.0789   -4.1020 H   0  0  0  0  0  0  0  0  0  0  0  0
   -0.5351    3.5910   -4.8523 H   0  0  0  0  0  0  0  0  0  0  0  0
   -2.3962    3.9119   -3.1044 H   0  0  0  0  0  0  0  0  0  0  0  0
   -0.8966    4.8019   -2.7086 H   0  0  0  0  0  0  0  0  0  0  0  0
    3.5529    2.7819   -3.1306 H   0  0  0  0  0  0  0  0  0  0  0  0
    3.8188    2.4881   -4.8858 H   0  0  0  0  0  0  0  0  0  0  0  0
    3.0899    1.2335   -3.8360 H   0  0  0  0  0  0  0  0  0  0  0  0
   -0.5371    0.6007    0.6929 H   0  0  0  0  0  0  0  0  0  0  0  0
   -1.7749   -1.9228   -2.9368 H   0  0  0  0  0  0  0  0  0  0  0  0
   -3.4395   -1.2944   -3.1438 H   0  0  0  0  0  0  0  0  0  0  0  0
   -4.4199   -1.2710   -0.3605 H   0  0  0  0  0  0  0  0  0  0  0  0
   -5.1795   -2.9828    1.2773 H   0  0  0  0  0  0  0  0  0  0  0  0
   -4.3514   -5.3169    1.1110 H   0  0  0  0  0  0  0  0  0  0  0  0
   -2.7879   -5.9471   -0.7243 H   0  0  0  0  0  0  0  0  0  0  0  0
   -1.9991   -4.2250   -2.3305 H   0  0  0  0  0  0  0  0  0  0  0  0
   -1.6250   -3.2447    1.0109 H   0  0  0  0  0  0  0  0  0  0  0  0
    0.4147   -1.8102    2.8482 H   0  0  0  0  0  0  0  0  0  0  0  0
    0.6341   -2.3234    1.0695 H   0  0  0  0  0  0  0  0  0  0  0  0
    2.2090    1.1456   -0.0808 H   0  0  0  0  0  0  0  0  0  0  0  0
    1.8671   -0.5195    0.3997 H   0  0  0  0  0  0  0  0  0  0  0  0
    5.1372   -0.7025    0.0795 H   0  0  0  0  0  0  0  0  0  0  0  0
    6.4511    1.5213   -2.2264 H   0  0  0  0  0  0  0  0  0  0  0  0
    5.2459    0.4227   -2.9217 H   0  0  0  0  0  0  0  0  0  0  0  0
    6.4151   -0.2036   -1.7250 H   0  0  0  0  0  0  0  0  0  0  0  0
    2.4173   -0.2896    3.2104 H   0  0  0  0  0  0  0  0  0  0  0  0
    2.5049   -2.8081    3.8958 H   0  0  0  0  0  0  0  0  0  0  0  0
    3.1688   -1.6998    5.1288 H   0  0  0  0  0  0  0  0  0  0  0  0
    4.2652   -2.5418    3.9884 H   0  0  0  0  0  0  0  0  0  0  0  0
  2  1  2  0  0  0  0
  2  3  1  0  0  0  0
  3 46  1  0  0  0  0
  4  3  1  0  0  0  0
  4 48  1  0  0  0  0
  5 49  1  0  0  0  0
  5  4  1  0  0  0  0
  6  5  1  0  0  0  0
  6 51  1  0  0  0  0
  7 53  1  0  0  0  0
  7  6  1  0  0  0  0
  8  9  1  6  0  0  0
  8  7  1  0  0  0  0
 10  8  1  0  0  0  0
 11 12  1  0  0  0  0
 11 10  1  0  0  0  0
 12 56  1  0  0  0  0
 12 55  1  0  0  0  0
 13 58  1  0  0  0  0
 13 12  1  0  0  0  0
 14 13  1  0  0  0  0
 15 14  1  0  0  0  0
 15 16  1  0  0  0  0
 16 62  1  0  0  0  0
 16 11  1  0  0  0  0
 17 18  1  0  0  0  0
 17 14  1  0  0  0  0
 18 65  1  0  0  0  0
 18 63  1  0  0  0  0
 19 17  2  0  0  0  0
 20 10  2  0  0  0  0
 21  8  1  0  0  0  0
 21 66  1  0  0  0  0
 22 21  1  0  0  0  0
 23 22  1  0  0  0  0
 24 23  1  0  0  0  0
 24 25  1  0  0  0  0
 25 26  1  0  0  0  0
 26 69  1  0  0  0  0
 26 27  2  0  0  0  0
 27 70  1  0  0  0  0
 28 27  1  0  0  0  0
 28 71  1  0  0  0  0
 29 28  2  0  0  0  0
 30 25  2  0  0  0  0
 30 29  1  0  0  0  0
 31 22  2  0  0  0  0
 32 33  2  0  0  0  0
 32  2  1  0  0  0  0
 33 75  1  0  0  0  0
 35 36  1  0  0  0  0
 35 34  1  0  0  0  0
 36 37  1  1  0  0  0
 36 42  1  0  0  0  0
 38 79  1  0  0  0  0
 38 36  1  0  0  0  0
 39 38  1  0  0  0  0
 40 82  1  0  0  0  0
 40 39  1  0  0  0  0
 41 39  2  0  0  0  0
 42 43  1  0  0  0  0
 43 83  1  0  0  0  0
 43 44  1  0  0  0  0
 44 85  1  0  0  0  0
 45 42  2  0  0  0  0
 47  4  1  0  0  0  0
 50  5  1  0  0  0  0
 52  6  1  0  0  0  0
 54  7  1  0  0  0  0
 57 13  1  0  0  0  0
 59 15  1  0  0  0  0
 60 15  1  0  0  0  0
 61 16  1  0  0  0  0
 64 18  1  0  0  0  0
 67 24  1  0  0  0  0
 68 24  1  0  0  0  0
 72 29  1  0  0  0  0
 73 30  1  0  0  0  0
 74 32  1  0  0  0  0
 76 33  1  0  0  0  0
 77 35  1  0  0  0  0
 78 35  1  0  0  0  0
 80 40  1  0  0  0  0
 81 40  1  0  0  0  0
 84 44  1  0  0  0  0
 86 44  1  0  0  0  0
M  END
