-1 1
 OpenBabel05232414493D

 87 87  0  0  1  0  0  0  0  0999 V2000
    9.0788   12.1833   -9.5705 O   0  0  0  0  0  0  0  0  0  0  0  0
    9.7141   11.1962   -9.9511 C   0  0  0  0  0  0  0  0  0  0  0  0
   10.9308   11.3864  -10.6358 N   0  0  0  0  0  0  0  0  0  0  0  0
   11.7754   12.5280  -10.3081 C   0  0  0  0  0  0  0  0  0  0  0  0
   11.3038   13.8995  -10.8024 C   0  0  0  0  0  0  0  0  0  0  0  0
   11.5969   14.3127  -12.2501 C   0  0  0  0  0  0  0  0  0  0  0  0
   10.8876   13.5696  -13.3929 C   0  0  0  0  0  0  0  0  0  0  0  0
    9.4643   13.1033  -13.0965 C   0  0  1  0  0  0  0  0  0  0  0  0
    9.5566   12.3582  -12.2955 H   0  0  0  0  0  0  0  0  0  0  0  0
    8.5487   14.2140  -12.5535 C   0  0  0  0  0  0  0  0  0  0  0  0
    7.3844   13.7785  -11.9959 N   0  0  0  0  0  0  0  0  0  0  0  0
    6.3974   14.7253  -11.5241 C   0  0  0  0  0  0  0  0  0  0  0  0
    5.0802   14.5238  -12.2679 C   0  0  0  0  0  0  0  0  0  0  0  0
    4.6872   13.1173  -12.1951 N   0  0  0  0  0  0  0  0  0  0  0  0
    5.7010   12.1601  -12.6330 C   0  0  0  0  0  0  0  0  0  0  0  0
    6.9643   12.3994  -11.8316 C   0  0  0  0  0  0  0  0  0  0  0  0
    3.1126   12.6443  -12.2702 S   0  0  0  0  0  0  0  0  0  0  0  0
    2.9624   11.5764  -10.8498 C   0  0  0  0  0  0  0  0  0  0  0  0
    2.2783   13.8288  -12.0590 O   0  0  0  0  0  0  0  0  0  0  0  0
    2.8695   11.8095  -13.4521 O   0  0  0  0  0  0  0  0  0  0  0  0
    8.8503   15.3946  -12.6002 O   0  0  0  0  0  0  0  0  0  0  0  0
    8.8650   12.3906  -14.2184 N   0  0  0  0  0  0  0  0  0  0  0  0
    8.2458   12.9172  -15.2931 C   0  0  0  0  0  0  0  0  0  0  0  0
    8.3049   14.2646  -15.3138 O   0  0  0  0  0  0  0  0  0  0  0  0
    7.5650   14.9287  -16.3277 C   0  0  0  0  0  0  0  0  0  0  0  0
    6.1191   15.1575  -15.9478 C   0  0  0  0  0  0  0  0  0  0  0  0
    5.6909   16.4201  -15.5260 C   0  0  0  0  0  0  0  0  0  0  0  0
    4.3605   16.6387  -15.1665 C   0  0  0  0  0  0  0  0  0  0  0  0
    3.4435   15.5897  -15.2104 C   0  0  0  0  0  0  0  0  0  0  0  0
    3.8606   14.3241  -15.6243 C   0  0  0  0  0  0  0  0  0  0  0  0
    5.1859   14.1115  -15.9986 C   0  0  0  0  0  0  0  0  0  0  0  0
    7.6854   12.2676  -16.1577 O   0  0  0  0  0  0  0  0  0  0  0  0
    9.3058    9.8289   -9.7655 C   0  0  0  0  0  3  0  0  0  0  0  0
    8.0679    9.5155   -9.1850 C   0  0  0  0  0  3  0  0  0  0  0  0
    6.2256    9.2747  -10.4813 S   0  0  0  0  0  1  0  0  0  0  0  0
    6.4375    7.7256  -11.4110 C   0  0  0  0  0  0  0  0  0  0  0  0
    7.3942    7.8083  -12.6068 C   0  0  2  0  0  0  0  0  0  0  0  0
    7.3483    6.8659  -13.1787 H   0  0  0  0  0  0  0  0  0  0  0  0
    8.7516    7.9663  -12.1728 N   0  0  0  0  0  0  0  0  0  0  0  0
    9.7820    7.5342  -12.9507 C   0  0  0  0  0  0  0  0  0  0  0  0
   11.1313    8.1223  -12.5794 C   0  0  0  0  0  0  0  0  0  0  0  0
    9.6479    6.7316  -13.8568 O   0  0  0  0  0  0  0  0  0  0  0  0
    7.0626    8.9406  -13.6014 C   0  0  0  0  0  0  0  0  0  0  0  0
    5.8235    8.9244  -14.1353 N   0  0  0  0  0  0  0  0  0  0  0  0
    5.3728    9.8566  -15.1480 C   0  0  0  0  0  0  0  0  0  0  0  0
    7.9109    9.7623  -13.9120 O   0  0  0  0  0  0  0  0  0  0  0  0
   11.4481   10.5272  -10.7735 H   0  0  0  0  0  0  0  0  0  0  0  0
   12.7784   12.3173  -10.7180 H   0  0  0  0  0  0  0  0  0  0  0  0
   11.8911   12.5971   -9.2091 H   0  0  0  0  0  0  0  0  0  0  0  0
   11.8039   14.6445  -10.1601 H   0  0  0  0  0  0  0  0  0  0  0  0
   10.2343   13.9877  -10.5691 H   0  0  0  0  0  0  0  0  0  0  0  0
   12.6867   14.2567  -12.4275 H   0  0  0  0  0  0  0  0  0  0  0  0
   11.3197   15.3732  -12.3262 H   0  0  0  0  0  0  0  0  0  0  0  0
   11.4468   12.6594  -13.6667 H   0  0  0  0  0  0  0  0  0  0  0  0
   10.8751   14.2172  -14.2833 H   0  0  0  0  0  0  0  0  0  0  0  0
    6.7819   15.7367  -11.7031 H   0  0  0  0  0  0  0  0  0  0  0  0
    6.2500   14.5838  -10.4388 H   0  0  0  0  0  0  0  0  0  0  0  0
    5.2206   14.8217  -13.3175 H   0  0  0  0  0  0  0  0  0  0  0  0
    4.2832   15.1417  -11.8359 H   0  0  0  0  0  0  0  0  0  0  0  0
    5.9012   12.2799  -13.7121 H   0  0  0  0  0  0  0  0  0  0  0  0
    5.3613   11.1321  -12.4526 H   0  0  0  0  0  0  0  0  0  0  0  0
    7.7270   11.6832  -12.1386 H   0  0  0  0  0  0  0  0  0  0  0  0
    6.7853   12.2079  -10.7624 H   0  0  0  0  0  0  0  0  0  0  0  0
    3.0779   12.1961   -9.9536 H   0  0  0  0  0  0  0  0  0  0  0  0
    3.7484   10.8069  -10.8897 H   0  0  0  0  0  0  0  0  0  0  0  0
    1.9657   11.1211  -10.8957 H   0  0  0  0  0  0  0  0  0  0  0  0
    8.7098   11.3834  -14.1346 H   0  0  0  0  0  0  0  0  0  0  0  0
    7.6273   14.3464  -17.2583 H   0  0  0  0  0  0  0  0  0  0  0  0
    8.0739   15.8915  -16.4662 H   0  0  0  0  0  0  0  0  0  0  0  0
    6.4125   17.2395  -15.4666 H   0  0  0  0  0  0  0  0  0  0  0  0
    4.0441   17.6295  -14.8317 H   0  0  0  0  0  0  0  0  0  0  0  0
    2.4093   15.7463  -14.8973 H   0  0  0  0  0  0  0  0  0  0  0  0
    3.1558   13.4904  -15.6279 H   0  0  0  0  0  0  0  0  0  0  0  0
    5.5223   13.1224  -16.3149 H   0  0  0  0  0  0  0  0  0  0  0  0
   10.0163    9.0293   -9.9896 H   0  0  0  0  0  0  0  0  0  0  0  0
    7.5731   10.3293   -8.6473 H   0  0  0  0  0  0  0  0  0  0  0  0
    7.9450    8.5326   -8.7236 H   0  0  0  0  0  0  0  0  0  0  0  0
    5.4404    7.4000  -11.7516 H   0  0  0  0  0  0  0  0  0  0  0  0
    6.8085    6.9277  -10.7477 H   0  0  0  0  0  0  0  0  0  0  0  0
    8.9216    8.7669  -11.5576 H   0  0  0  0  0  0  0  0  0  0  0  0
   11.3957    7.8690  -11.5412 H   0  0  0  0  0  0  0  0  0  0  0  0
   11.0915    9.2192  -12.6642 H   0  0  0  0  0  0  0  0  0  0  0  0
   11.8930    7.7235  -13.2591 H   0  0  0  0  0  0  0  0  0  0  0  0
    5.1667    8.2439  -13.7793 H   0  0  0  0  0  0  0  0  0  0  0  0
    6.2155   10.5074  -15.4207 H   0  0  0  0  0  0  0  0  0  0  0  0
    4.5402   10.4746  -14.7780 H   0  0  0  0  0  0  0  0  0  0  0  0
    5.0451    9.3151  -16.0496 H   0  0  0  0  0  0  0  0  0  0  0  0
  2 33  1  0  0  0  0
  2  1  2  0  0  0  0
  3  4  1  0  0  0  0
  3  2  1  0  0  0  0
  4 49  1  0  0  0  0
  5 51  1  0  0  0  0
  5  4  1  0  0  0  0
  5 50  1  0  0  0  0
  6  5  1  0  0  0  0
  7  8  1  0  0  0  0
  7  6  1  0  0  0  0
  8 10  1  0  0  0  0
  8  9  1  1  0  0  0
 10 11  1  0  0  0  0
 11 16  1  0  0  0  0
 11 12  1  0  0  0  0
 12 57  1  0  0  0  0
 13 14  1  0  0  0  0
 13 59  1  0  0  0  0
 13 12  1  0  0  0  0
 15 61  1  0  0  0  0
 15 14  1  0  0  0  0
 15 16  1  0  0  0  0
 16 63  1  0  0  0  0
 17 14  1  0  0  0  0
 17 19  2  0  0  0  0
 17 18  1  0  0  0  0
 18 64  1  0  0  0  0
 20 17  2  0  0  0  0
 21 10  2  0  0  0  0
 22 67  1  0  0  0  0
 22  8  1  0  0  0  0
 23 22  1  0  0  0  0
 24 23  1  0  0  0  0
 25 26  1  0  0  0  0
 25 24  1  0  0  0  0
 26 27  1  0  0  0  0
 27 70  1  0  0  0  0
 27 28  2  0  0  0  0
 28 71  1  0  0  0  0
 29 28  1  0  0  0  0
 29 72  1  0  0  0  0
 30 29  2  0  0  0  0
 31 26  2  0  0  0  0
 31 30  1  0  0  0  0
 32 23  2  0  0  0  0
 33 34  1  0  0  0  0
 34 77  1  0  0  0  0
 34 76  1  0  0  0  0
 36 79  1  0  0  0  0
 36 35  1  0  0  0  0
 37 38  1  6  0  0  0
 37 39  1  0  0  0  0
 37 36  1  0  0  0  0
 39 80  1  0  0  0  0
 40 41  1  0  0  0  0
 40 39  1  0  0  0  0
 41 81  1  0  0  0  0
 42 40  2  0  0  0  0
 43 37  1  0  0  0  0
 44 84  1  0  0  0  0
 44 43  1  0  0  0  0
 45 86  1  0  0  0  0
 45 44  1  0  0  0  0
 46 43  2  0  0  0  0
 47  3  1  0  0  0  0
 48  4  1  0  0  0  0
 52  6  1  0  0  0  0
 53  6  1  0  0  0  0
 54  7  1  0  0  0  0
 55  7  1  0  0  0  0
 56 12  1  0  0  0  0
 58 13  1  0  0  0  0
 60 15  1  0  0  0  0
 62 16  1  0  0  0  0
 65 18  1  0  0  0  0
 66 18  1  0  0  0  0
 68 25  1  0  0  0  0
 69 25  1  0  0  0  0
 73 30  1  0  0  0  0
 74 31  1  0  0  0  0
 75 33  1  0  0  0  0
 78 36  1  0  0  0  0
 82 41  1  0  0  0  0
 83 41  1  0  0  0  0
 85 45  1  0  0  0  0
 87 45  1  0  0  0  0
M  END
