-1 1
 OpenBabel05232414493D

 90 93  0  0  1  0  0  0  0  0999 V2000
    1.3205   -6.2216  -16.2386 C   0  0  0  0  0  0  0  0  0  0  0  0
    1.2551   -5.3473  -15.1362 O   0  0  0  0  0  0  0  0  0  0  0  0
    2.2190   -5.5176  -14.1909 C   0  0  0  0  0  0  0  0  0  0  0  0
    3.2102   -4.5791  -14.0452 C   0  0  0  0  0  0  0  0  0  0  0  0
    2.1706   -6.6442  -13.3085 C   0  0  0  0  0  0  0  0  0  0  0  0
    1.1398   -7.4902  -13.5186 O   0  0  0  0  0  0  0  0  0  0  0  0
    1.0238   -8.6572  -12.7364 C   0  0  0  0  0  0  0  0  0  0  0  0
    1.9709   -9.7620  -13.1859 C   0  0  0  0  0  0  0  0  0  0  0  0
    1.9272  -10.9599  -12.2452 C   0  0  0  0  0  0  0  0  0  0  0  0
    2.6837  -12.0878  -12.7306 N   0  0  0  0  0  0  0  0  0  0  0  0
    4.1177  -11.8781  -12.8468 C   0  0  0  0  0  0  0  0  0  0  0  0
    4.6903  -13.2894  -13.0527 C   0  0  0  0  0  0  0  0  0  0  0  0
    3.5918  -14.2371  -12.5163 C   0  0  0  0  0  0  0  0  0  0  0  0
    2.5394  -13.2908  -11.9346 C   0  0  0  0  0  0  0  0  0  0  0  0
    3.1249   -6.7769  -12.3228 C   0  0  0  0  0  0  0  0  0  0  0  0
    4.1554   -5.8138  -12.1677 C   0  0  0  0  0  0  0  0  0  0  0  0
    4.2055   -4.7058  -13.0457 C   0  0  0  0  0  0  0  0  0  0  0  0
    5.2856   -3.7748  -12.8210 C   0  0  2  0  0  3  0  0  0  0  0  0
    5.4192   -2.6855  -13.6207 N   0  0  0  0  0  0  0  0  0  0  0  0
    6.1526   -1.5101  -13.3582 C   0  0  0  0  0  0  0  0  0  0  0  0
    6.6833   -0.7856  -14.3638 C   0  0  0  0  0  0  0  0  0  0  0  0
    7.2870    0.5671  -14.2022 C   0  0  0  0  0  0  0  0  0  0  0  0
    7.7215    1.1645  -15.1934 O   0  0  0  0  0  0  0  0  0  0  0  0
    7.2683    1.0845  -12.8656 C   0  0  1  0  0  3  0  0  0  0  0  0
    6.8119    0.3424  -11.7907 C   0  0  0  0  0  3  0  0  0  0  0  0
    8.5730   -1.0435  -10.9479 S   0  0  0  0  0  1  0  0  0  0  0  0
    7.7549   -2.0288   -9.6777 C   0  0  0  0  0  0  0  0  0  0  0  0
    6.9041   -1.2294   -8.6693 C   0  0  2  0  0  0  0  0  0  0  0  0
    6.2120   -0.5853   -9.2233 H   0  0  0  0  0  0  0  0  0  0  0  0
    7.6818   -0.3791   -7.8120 N   0  0  0  0  0  0  0  0  0  0  0  0
    7.7192    0.9684   -7.9394 C   0  0  0  0  0  0  0  0  0  0  0  0
    8.7286    1.6727   -7.0544 C   0  0  0  0  0  0  0  0  0  0  0  0
    7.0197    1.5963   -8.7188 O   0  0  0  0  0  0  0  0  0  0  0  0
    6.0844   -2.2243   -7.8496 C   0  0  0  0  0  0  0  0  0  0  0  0
    5.0428   -2.7457   -8.5430 N   0  0  0  0  0  0  0  0  0  0  0  0
    4.2196   -3.8146   -8.0427 C   0  0  0  0  0  0  0  0  0  0  0  0
    6.3915   -2.5494   -6.7123 O   0  0  0  0  0  0  0  0  0  0  0  0
    6.0337   -0.8976  -12.0007 C   0  0  0  0  0  0  0  0  0  0  0  0
    5.2250   -1.3337  -11.1879 O   0  0  0  0  0  0  0  0  0  0  0  0
    7.9097    2.2672  -12.5882 O   0  0  0  0  0  0  0  0  0  0  0  0
    7.3681    3.4314  -13.1419 C   0  0  0  0  0  0  0  0  0  0  0  0
    7.5440    4.5874  -12.1837 C   0  0  0  0  0  0  0  0  0  0  0  0
    7.6613    5.8955  -12.6633 C   0  0  0  0  0  0  0  0  0  0  0  0
    7.7667    6.9734  -11.7842 C   0  0  0  0  0  0  0  0  0  0  0  0
    7.7644    6.7518  -10.4075 C   0  0  0  0  0  0  0  0  0  0  0  0
    7.6566    5.4474   -9.9229 C   0  0  0  0  0  0  0  0  0  0  0  0
    7.5481    4.3702  -10.8006 C   0  0  0  0  0  0  0  0  0  0  0  0
    6.1617   -3.9905  -11.8587 N   0  0  0  0  0  0  0  0  0  0  0  0
    5.9921   -5.0674  -11.0800 C   0  0  0  0  0  0  0  0  0  0  0  0
    5.0606   -5.9861  -11.1647 N   0  0  0  0  0  2  0  0  0  0  0  0
    0.5080   -5.9394  -16.9209 H   0  0  0  0  0  0  0  0  0  0  0  0
    1.1854   -7.2719  -15.9346 H   0  0  0  0  0  0  0  0  0  0  0  0
    2.2841   -6.1201  -16.7695 H   0  0  0  0  0  0  0  0  0  0  0  0
    3.1758   -3.7263  -14.7262 H   0  0  0  0  0  0  0  0  0  0  0  0
   -0.0213   -8.9801  -12.8533 H   0  0  0  0  0  0  0  0  0  0  0  0
    1.1714   -8.4190  -11.6679 H   0  0  0  0  0  0  0  0  0  0  0  0
    2.9943   -9.3595  -13.2374 H   0  0  0  0  0  0  0  0  0  0  0  0
    1.7014  -10.0885  -14.2027 H   0  0  0  0  0  0  0  0  0  0  0  0
    0.8792  -11.2841  -12.1189 H   0  0  0  0  0  0  0  0  0  0  0  0
    2.2787  -10.6432  -11.2326 H   0  0  0  0  0  0  0  0  0  0  0  0
    4.5312  -11.4233  -11.9170 H   0  0  0  0  0  0  0  0  0  0  0  0
    4.3601  -11.1966  -13.6753 H   0  0  0  0  0  0  0  0  0  0  0  0
    5.6452  -13.4099  -12.5221 H   0  0  0  0  0  0  0  0  0  0  0  0
    4.8857  -13.4813  -14.1170 H   0  0  0  0  0  0  0  0  0  0  0  0
    3.9668  -14.9462  -11.7648 H   0  0  0  0  0  0  0  0  0  0  0  0
    3.1570  -14.8258  -13.3368 H   0  0  0  0  0  0  0  0  0  0  0  0
    2.7514  -13.0934  -10.8570 H   0  0  0  0  0  0  0  0  0  0  0  0
    1.5128  -13.6856  -11.9979 H   0  0  0  0  0  0  0  0  0  0  0  0
    3.1348   -7.6094  -11.6204 H   0  0  0  0  0  0  0  0  0  0  0  0
    4.8560   -2.6648  -14.4578 H   0  0  0  0  0  0  0  0  0  0  0  0
    6.6884   -1.1691  -15.3891 H   0  0  0  0  0  0  0  0  0  0  0  0
    6.6831    0.8408  -10.8275 H   0  0  0  0  0  0  0  0  0  0  0  0
    8.5172   -2.6047   -9.1249 H   0  0  0  0  0  0  0  0  0  0  0  0
    7.1034   -2.7520  -10.1854 H   0  0  0  0  0  0  0  0  0  0  0  0
    8.2097   -0.8353   -7.0796 H   0  0  0  0  0  0  0  0  0  0  0  0
    9.6009    1.9252   -7.6755 H   0  0  0  0  0  0  0  0  0  0  0  0
    9.0648    1.0632   -6.2035 H   0  0  0  0  0  0  0  0  0  0  0  0
    8.2896    2.6104   -6.6904 H   0  0  0  0  0  0  0  0  0  0  0  0
    4.9002   -2.3977   -9.4911 H   0  0  0  0  0  0  0  0  0  0  0  0
    4.5985   -4.0966   -7.0515 H   0  0  0  0  0  0  0  0  0  0  0  0
    4.2582   -4.6944   -8.7062 H   0  0  0  0  0  0  0  0  0  0  0  0
    3.1672   -3.5021   -7.9397 H   0  0  0  0  0  0  0  0  0  0  0  0
    6.2853    3.2901  -13.3312 H   0  0  0  0  0  0  0  0  0  0  0  0
    7.8329    3.6554  -14.1182 H   0  0  0  0  0  0  0  0  0  0  0  0
    7.6761    6.0710  -13.7434 H   0  0  0  0  0  0  0  0  0  0  0  0
    7.8594    7.9895  -12.1771 H   0  0  0  0  0  0  0  0  0  0  0  0
    7.8509    7.5931   -9.7147 H   0  0  0  0  0  0  0  0  0  0  0  0
    7.6542    5.2574   -8.8466 H   0  0  0  0  0  0  0  0  0  0  0  0
    7.4709    3.3536  -10.4067 H   0  0  0  0  0  0  0  0  0  0  0  0
    6.7313   -5.1825  -10.2773 H   0  0  0  0  0  0  0  0  0  0  0  0
  1 52  1  0  0  0  0
  1  2  1  0  0  0  0
  2  3  1  0  0  0  0
  3  4  2  0  0  0  0
  3  5  1  0  0  0  0
  4 17  1  0  0  0  0
  5 15  2  0  0  0  0
  6  5  1  0  0  0  0
  6  7  1  0  0  0  0
  7 56  1  0  0  0  0
  8  7  1  0  0  0  0
  8  9  1  0  0  0  0
  9 59  1  0  0  0  0
  9 60  1  0  0  0  0
 10  9  1  0  0  0  0
 10 14  1  0  0  0  0
 11 10  1  0  0  0  0
 11 61  1  0  0  0  0
 12 11  1  0  0  0  0
 12 63  1  0  0  0  0
 12 13  1  0  0  0  0
 13 14  1  0  0  0  0
 13 65  1  0  0  0  0
 14 67  1  0  0  0  0
 15 16  1  0  0  0  0
 15 69  1  0  0  0  0
 16 50  1  0  0  0  0
 17 18  1  0  0  0  0
 17 16  2  0  0  0  0
 18 19  1  6  0  0  0
 18 48  1  0  0  0  0
 19 20  1  0  0  0  0
 20 38  1  0  0  0  0
 21 22  1  0  0  0  0
 21 20  2  0  0  0  0
 22 24  1  0  0  0  0
 23 22  2  0  0  0  0
 24 40  1  1  0  0  0
 24 25  1  0  0  0  0
 25 72  1  0  0  0  0
 26 27  1  0  0  0  0
 27 73  1  0  0  0  0
 27 28  1  0  0  0  0
 28 29  1  6  0  0  0
 28 34  1  0  0  0  0
 28 30  1  0  0  0  0
 30 75  1  0  0  0  0
 31 30  1  0  0  0  0
 31 32  1  0  0  0  0
 32 78  1  0  0  0  0
 32 77  1  0  0  0  0
 33 31  2  0  0  0  0
 34 37  2  0  0  0  0
 35 36  1  0  0  0  0
 35 34  1  0  0  0  0
 36 82  1  0  0  0  0
 36 80  1  0  0  0  0
 38 25  1  0  0  0  0
 38 39  2  0  0  0  0
 41 40  1  0  0  0  0
 41 42  1  0  0  0  0
 42 47  1  0  0  0  0
 43 42  2  0  0  0  0
 43 44  1  0  0  0  0
 44 45  2  0  0  0  0
 45 46  1  0  0  0  0
 45 87  1  0  0  0  0
 46 88  1  0  0  0  0
 47 89  1  0  0  0  0
 47 46  2  0  0  0  0
 48 49  2  0  0  0  0
 49 90  1  0  0  0  0
 50 49  1  0  0  0  0
 51  1  1  0  0  0  0
 53  1  1  0  0  0  0
 54  4  1  0  0  0  0
 55  7  1  0  0  0  0
 57  8  1  0  0  0  0
 58  8  1  0  0  0  0
 62 11  1  0  0  0  0
 64 12  1  0  0  0  0
 66 13  1  0  0  0  0
 68 14  1  0  0  0  0
 70 19  1  0  0  0  0
 71 21  1  0  0  0  0
 74 27  1  0  0  0  0
 76 32  1  0  0  0  0
 79 35  1  0  0  0  0
 81 36  1  0  0  0  0
 83 41  1  0  0  0  0
 84 41  1  0  0  0  0
 85 43  1  0  0  0  0
 86 44  1  0  0  0  0
M  END
