90
-1 1
C        -3.589361   -3.217932   -4.774588
O        -3.764642   -2.353144   -3.676904
C        -2.938981   -2.571189   -2.617618
C        -1.937336   -1.677354   -2.332641
C        -3.151844   -3.700256   -1.762123
O        -4.178872   -4.500924   -2.118715
C        -4.450374   -5.663397   -1.369359
C        -3.497326   -6.806816   -1.692021
C        -3.723873   -8.004662   -0.778011
N        -2.955788   -9.163232   -1.162893
C        -1.512149   -9.017706   -1.071851
C        -0.978964  -10.452022   -1.212505
C        -2.181394  -11.352048   -0.842685
C        -3.264361  -10.361824   -0.408033
C        -2.347903   -3.876343   -0.657071
C        -1.309114   -2.957195   -0.354906
C        -1.086896   -1.853956   -1.212760
C         0.001547   -0.979929   -0.847106
N         0.309373    0.060507   -1.681742
C         0.920695    1.296304   -1.455642
C         1.332778    2.022679   -2.525585
C         1.765606    3.423026   -2.440320
O         2.105219    4.058825   -3.432786
C         1.748652    4.013148   -1.090848
C         1.340643    3.311993   -0.014542
S         3.168913    1.360847    0.639674
C         2.456306    0.676545    2.142685
C         1.815502    1.694670    3.107025
H         1.179085    2.373793    2.531720
N         2.769336    2.508912    3.808531
C         2.854281    3.851810    3.665429
C         4.006236    4.506908    4.403336
O         2.093110    4.514119    2.977011
C         0.917611    0.928382    4.078359
N        -0.240057    0.526261    3.499289
C        -1.175738   -0.352849    4.144481
O         1.250406    0.666152    5.224674
C         0.818332    1.928549   -0.096234
O        -0.010192    1.492173    0.717897
O         2.290028    5.254059   -0.924309
C         1.600243    6.345336   -1.468491
C         1.657619    7.519062   -0.516185
C         1.467822    8.820045   -0.993961
C         1.465380    9.907565   -0.121892
C         1.661870    9.705310    1.244360
C         1.860612    8.410928    1.724537
C         1.860752    7.321635    0.853879
N         0.709323   -1.220503    0.233158
C         0.375883   -2.276752    0.988139
N        -0.565839   -3.161142    0.766425
H        -4.295848   -2.897853   -5.551688
H        -3.800975   -4.265533   -4.506582
H        -2.562136   -3.147992   -5.175453
H        -1.849788   -0.813548   -2.994523
H        -5.481716   -5.941680   -1.632231
H        -4.442463   -5.433912   -0.288846
H        -2.460643   -6.449083   -1.596128
H        -3.635295   -7.117970   -2.739502
H        -4.792103   -8.283239   -0.803017
H        -3.504990   -7.707198    0.276877
H        -1.215529   -8.588158   -0.086992
H        -1.124652   -8.342524   -1.848786
H        -0.112124  -10.617936   -0.557607
H        -0.648007  -10.647021   -2.242226
H        -1.946498  -12.077018   -0.050561
H        -2.520555  -11.921262   -1.720100
H        -3.200525  -10.178148    0.690762
H        -4.287508  -10.710551   -0.621181
H        -2.470186   -4.708459    0.035101
H        -0.029771   -0.045758   -2.627091
H         1.342250    1.591554   -3.531158
H         1.357982    3.778927    0.973061
H         3.216408    0.088775    2.686098
H         1.673129   -0.021559    1.817920
H         3.357425    2.041422    4.485310
H         4.801641    4.715225    3.672430
H         4.420996    3.883926    5.208518
H         3.664928    5.465887    4.813835
H        -0.376174    0.791855    2.520871
H        -0.790597   -0.581139    5.147276
H        -1.295848   -1.295586    3.584315
H        -2.169179    0.114522    4.247783
H         0.539514    6.077916   -1.637726
H         2.021149    6.618392   -2.451541
H         1.323584    8.983116   -2.066541
H         1.316304   10.917922   -0.511978
H         1.663717   10.555621    1.931278
H         2.017090    8.235568    2.791719
H         2.025734    6.314218    1.243688
H         0.981905   -2.410778    1.893140
