90
-1 1
C        -4.401334   -3.404323   -4.415659
O        -4.458522   -2.541253   -3.304093
C        -3.442928   -2.668914   -2.406854
C        -2.492734   -1.683073   -2.301089
C        -3.389475   -3.802861   -1.535885
O        -4.388095   -4.697361   -1.699368
C        -4.405483   -5.873895   -0.923790
C        -3.435138   -6.930487   -1.435662
C        -3.374417   -8.136447   -0.506394
N        -2.598820   -9.227235   -1.043909
C        -1.183132   -8.957250   -1.234466
C        -0.566629  -10.341421   -1.490200
C        -1.591587  -11.338674   -0.900523
C        -2.650128  -10.441888   -0.254286
C        -2.375211   -3.898878   -0.606781
C        -1.385360   -2.888487   -0.496220
C        -1.445348   -1.764879   -1.352668
C        -0.410644   -0.772469   -1.166667
N        -0.397730    0.355790   -1.908026
C         0.374090    1.510626   -1.617391
C         0.957290    2.252949   -2.594511
C         1.674211    3.547727   -2.431146
O         2.113735    4.138692   -3.450498
C         1.727560    3.973711   -1.103513
C         1.284526    3.159272    0.044489
S         2.828713    2.300411    0.729712
C         2.153967    1.156009    1.957938
C         1.277003    1.799200    3.047955
H         0.504861    2.409944    2.563723
N         2.013855    2.647046    3.942682
C         1.990337    4.001550    3.860256
C         2.905777    4.723585    4.828844
O         1.314020    4.615038    3.052721
C         0.586630    0.680590    3.829791
N        -0.407796    0.082302    3.136334
C        -1.126403   -1.068167    3.620878
O         0.956357    0.349640    4.947254
C         0.314530    2.042919   -0.256485
O        -0.468010    1.613900    0.586446
O         2.424385    5.098039   -0.722086
C         2.076997    6.296294   -1.353315
C         2.449757    7.455842   -0.460809
C         2.824757    8.686432   -1.007899
C         3.116165    9.776681   -0.187383
C         3.044570    9.644629    1.198669
C         2.679212    8.416106    1.752165
C         2.383511    7.328450    0.932787
N         0.544947   -0.969480   -0.269514
C         0.486844   -2.077677    0.478527
N        -0.406611   -3.037122    0.440943
H        -5.258296   -3.159574   -5.056961
H        -4.469084   -4.462028   -4.114478
H        -3.470154   -3.251216   -4.990250
H        -2.597505   -0.834670   -2.980349
H        -5.439266   -6.245087   -0.985555
H        -4.209387   -5.637068    0.137237
H        -2.435310   -6.481406   -1.538436
H        -3.744935   -7.260821   -2.439655
H        -4.398864   -8.506837   -0.325593
H        -2.981046   -7.812854    0.488469
H        -0.738175   -8.496684   -0.322097
H        -1.014059   -8.256795   -2.065393
H         0.422710  -10.427180   -1.019340
H        -0.428346  -10.515081   -2.566581
H        -1.144969  -12.034039   -0.175808
H        -2.045180  -11.942323   -1.699725
H        -2.389371  -10.244625    0.812615
H        -3.661336  -10.879104   -0.267100
H        -2.281977   -4.739542    0.079493
H        -1.116441    0.457396   -2.609609
H         0.920156    1.900063   -3.631735
H         0.913612    3.778820    0.873243
H         3.027925    0.675552    2.426614
H         1.587295    0.377007    1.430946
H         2.461983    2.183924    4.724129
H         3.795120    5.052129    4.270620
H         3.228737    4.099763    5.674287
H         2.392431    5.619534    5.200801
H        -0.618665    0.457798    2.210337
H        -0.678247   -1.372289    4.575600
H        -1.062174   -1.905634    2.907857
H        -2.190656   -0.836460    3.792165
H         0.982113    6.318390   -1.530579
H         2.551083    6.371960   -2.346441
H         2.895200    8.787681   -2.094993
H         3.409385   10.730865   -0.633644
H         3.276861   10.494872    1.845536
H         2.620077    8.299014    2.837557
H         2.102747    6.368559    1.374056
H         1.290055   -2.181870    1.219462
