-1 1
 OpenBabel05232413493D

105107  0  0  1  0  0  0  0  0999 V2000
   -2.6264    5.3947   -0.8310 O   0  0  0  0  0  0  0  0  0  0  0  0
   -1.6163    4.7665   -0.5376 C   0  0  0  0  0  0  0  0  0  0  0  0
   -0.8628    4.1720   -1.5059 N   0  0  0  0  0  0  0  0  0  0  0  0
    0.2007    3.2013   -1.3280 C   0  0  0  0  0  0  0  0  0  0  0  0
   -0.3103    1.7856   -1.0041 C   0  0  0  0  0  0  0  0  0  0  0  0
    0.2464    0.6574   -1.8682 C   0  0  0  0  0  0  0  0  0  0  0  0
    0.1488    0.8859   -3.3977 C   0  0  1  0  0  0  0  0  0  0  0  0
    0.9934    1.5276   -3.6935 H   0  0  0  0  0  0  0  0  0  0  0  0
    0.2528   -0.4414   -4.1795 C   0  0  0  0  0  0  0  0  0  0  0  0
    1.4758   -1.0568   -4.2574 N   0  0  0  0  0  0  0  0  0  0  0  0
    2.7124   -0.6472   -3.6219 C   0  0  0  0  0  0  0  0  0  0  0  0
    3.0245   -1.5547   -2.4397 C   0  0  0  0  0  0  0  0  0  0  0  0
    3.0248   -2.9537   -2.8707 N   0  0  0  0  0  0  0  0  0  0  0  0
    1.8126   -3.3694   -3.5796 C   0  0  0  0  0  0  0  0  0  0  0  0
    1.5423   -2.4236   -4.7429 C   0  0  0  0  0  0  0  0  0  0  0  0
    3.6180   -4.0754   -1.7656 S   0  0  0  0  0  0  0  0  0  0  0  0
    4.8073   -3.4846   -1.1663 O   0  0  0  0  0  0  0  0  0  0  0  0
    2.2904   -4.2384   -0.5694 C   0  0  0  0  0  0  0  0  0  0  0  0
    1.4685   -5.3297   -0.7512 C   0  0  0  0  0  0  0  0  0  0  0  0
    0.2796   -5.4550   -0.0036 C   0  0  0  0  0  0  0  0  0  0  0  0
   -0.1027   -4.4435    0.8418 C   0  0  0  0  0  0  0  0  0  0  0  0
    1.9756   -3.2039    0.3771 C   0  0  0  0  0  0  0  0  0  0  0  0
    0.7010   -3.2878    1.0206 C   0  0  0  0  0  0  0  0  0  0  0  0
    0.2592   -2.2165    1.8731 C   0  0  0  0  0  0  0  0  0  0  0  0
   -1.0481   -2.2800    2.4082 N   0  0  0  0  0  0  0  0  0  0  0  0
   -1.2290   -1.6787    3.7186 C   0  0  0  0  0  0  0  0  0  0  0  0
   -2.0852   -1.9018    1.4597 C   0  0  0  0  0  0  0  0  0  0  0  0
    1.1156   -1.1676    2.1280 C   0  0  0  0  0  0  0  0  0  0  0  0
    2.4078   -1.1351    1.5626 C   0  0  0  0  0  0  0  0  0  0  0  0
    2.8363   -2.1196    0.7077 C   0  0  0  0  0  0  0  0  0  0  0  0
    3.7163   -5.3391   -2.4873 O   0  0  0  0  0  0  0  0  0  0  0  0
   -0.7333   -0.9217   -4.7033 O   0  0  0  0  0  0  0  0  0  0  0  0
   -1.0257    1.6167   -3.8247 N   0  0  0  0  0  0  0  0  0  0  0  0
   -2.3363    1.2532   -3.6570 C   0  0  0  0  0  0  0  0  0  0  0  0
   -2.4945    0.3605   -2.6721 O   0  0  0  0  0  0  0  0  0  0  0  0
   -3.8231    0.0390   -2.2807 C   0  0  0  0  0  0  0  0  0  0  0  0
   -4.2535    0.8211   -1.0627 C   0  0  0  0  0  0  0  0  0  0  0  0
   -4.1678    2.2194   -1.0419 C   0  0  0  0  0  0  0  0  0  0  0  0
   -4.5770    2.9397    0.0772 C   0  0  0  0  0  0  0  0  0  0  0  0
   -5.1012    2.2702    1.1837 C   0  0  0  0  0  0  0  0  0  0  0  0
   -5.1946    0.8806    1.1726 C   0  0  0  0  0  0  0  0  0  0  0  0
   -4.7634    0.1607    0.0576 C   0  0  0  0  0  0  0  0  0  0  0  0
   -3.2404    1.7470   -4.2896 O   0  0  0  0  0  0  0  0  0  0  0  0
   -1.1561    4.6025    0.8764 C   0  0  0  0  0  0  0  0  0  0  0  0
   -1.8463    5.1697    1.8675 C   0  0  0  0  0  0  0  0  0  0  0  0
    2.1135    2.6173    1.7645 S   0  0  0  0  0  1  0  0  0  0  0  0
    1.7177    3.5572    3.2903 C   0  0  0  0  0  0  0  0  0  0  0  0
    0.9976    2.7187    4.3762 C   0  0  2  0  0  0  0  0  0  0  0  0
    1.0244    3.2484    5.3408 H   0  0  0  0  0  0  0  0  0  0  0  0
    1.6904    1.4571    4.4941 N   0  0  0  0  0  0  0  0  0  0  0  0
    1.4322    0.5279    5.4413 C   0  0  0  0  0  0  0  0  0  0  0  0
    2.2928   -0.7238    5.3635 C   0  0  0  0  0  0  0  0  0  0  0  0
    0.5876    0.6668    6.3098 O   0  0  0  0  0  0  0  0  0  0  0  0
   -0.4997    2.5960    4.0596 C   0  0  0  0  0  0  0  0  0  0  0  0
   -0.7920    1.8106    2.9865 N   0  0  0  0  0  0  0  0  0  0  0  0
   -2.1373    1.7331    2.4744 C   0  0  0  0  0  0  0  0  0  0  0  0
   -1.3390    3.2130    4.6930 O   0  0  0  0  0  0  0  0  0  0  0  0
   -1.3078    4.2017   -2.4171 H   0  0  0  0  0  0  0  0  0  0  0  0
    0.8878    3.5300   -0.5337 H   0  0  0  0  0  0  0  0  0  0  0  0
    0.7920    3.2104   -2.2563 H   0  0  0  0  0  0  0  0  0  0  0  0
   -1.4056    1.7838   -1.0704 H   0  0  0  0  0  0  0  0  0  0  0  0
   -0.0510    1.5559    0.0413 H   0  0  0  0  0  0  0  0  0  0  0  0
   -0.2713   -0.2758   -1.6040 H   0  0  0  0  0  0  0  0  0  0  0  0
    1.3062    0.5113   -1.6128 H   0  0  0  0  0  0  0  0  0  0  0  0
    2.6635    0.3919   -3.2785 H   0  0  0  0  0  0  0  0  0  0  0  0
    3.5248   -0.7099   -4.3655 H   0  0  0  0  0  0  0  0  0  0  0  0
    2.2633   -1.3815   -1.6601 H   0  0  0  0  0  0  0  0  0  0  0  0
    4.0100   -1.3130   -2.0235 H   0  0  0  0  0  0  0  0  0  0  0  0
    0.9353   -3.3599   -2.9024 H   0  0  0  0  0  0  0  0  0  0  0  0
    1.9582   -4.3934   -3.9467 H   0  0  0  0  0  0  0  0  0  0  0  0
    0.5850   -2.6672   -5.2168 H   0  0  0  0  0  0  0  0  0  0  0  0
    2.3479   -2.5058   -5.4911 H   0  0  0  0  0  0  0  0  0  0  0  0
    1.7498   -6.0900   -1.4809 H   0  0  0  0  0  0  0  0  0  0  0  0
   -0.3383   -6.3474   -0.1182 H   0  0  0  0  0  0  0  0  0  0  0  0
   -1.0259   -4.5074    1.4197 H   0  0  0  0  0  0  0  0  0  0  0  0
   -0.4842   -2.0826    4.4182 H   0  0  0  0  0  0  0  0  0  0  0  0
   -2.2268   -1.9467    4.0974 H   0  0  0  0  0  0  0  0  0  0  0  0
   -1.1436   -0.5764    3.7304 H   0  0  0  0  0  0  0  0  0  0  0  0
   -3.0748   -2.1586    1.8698 H   0  0  0  0  0  0  0  0  0  0  0  0
   -1.9583   -2.4444    0.5116 H   0  0  0  0  0  0  0  0  0  0  0  0
   -2.0830   -0.8179    1.2328 H   0  0  0  0  0  0  0  0  0  0  0  0
    0.7982   -0.3377    2.7587 H   0  0  0  0  0  0  0  0  0  0  0  0
    3.0459   -0.2749    1.7832 H   0  0  0  0  0  0  0  0  0  0  0  0
    3.8362   -2.0786    0.2820 H   0  0  0  0  0  0  0  0  0  0  0  0
   -0.9182    2.1617   -4.6703 H   0  0  0  0  0  0  0  0  0  0  0  0
   -3.8228   -1.0383   -2.0669 H   0  0  0  0  0  0  0  0  0  0  0  0
   -4.4958    0.2373   -3.1277 H   0  0  0  0  0  0  0  0  0  0  0  0
   -3.7812    2.7601   -1.9085 H   0  0  0  0  0  0  0  0  0  0  0  0
   -4.4586    4.0253    0.0743 H   0  0  0  0  0  0  0  0  0  0  0  0
   -5.4152    2.8333    2.0653 H   0  0  0  0  0  0  0  0  0  0  0  0
   -5.5864    0.3502    2.0437 H   0  0  0  0  0  0  0  0  0  0  0  0
   -4.8228   -0.9317    0.0604 H   0  0  0  0  0  0  0  0  0  0  0  0
   -0.2707    3.9936    1.0917 H   0  0  0  0  0  0  0  0  0  0  0  0
   -1.5683    5.0247    2.9147 H   0  0  0  0  0  0  0  0  0  0  0  0
   -2.7300    5.7715    1.6343 H   0  0  0  0  0  0  0  0  0  0  0  0
    1.0860    4.4311    3.0633 H   0  0  0  0  0  0  0  0  0  0  0  0
    2.6502    3.9456    3.7294 H   0  0  0  0  0  0  0  0  0  0  0  0
    2.2983    1.2582    3.6952 H   0  0  0  0  0  0  0  0  0  0  0  0
    1.6395   -1.5989    5.2395 H   0  0  0  0  0  0  0  0  0  0  0  0
    2.8220   -0.8410    6.3199 H   0  0  0  0  0  0  0  0  0  0  0  0
    3.0228   -0.7080    4.5430 H   0  0  0  0  0  0  0  0  0  0  0  0
    0.0027    1.6662    2.3496 H   0  0  0  0  0  0  0  0  0  0  0  0
   -2.6796    0.8556    2.8659 H   0  0  0  0  0  0  0  0  0  0  0  0
   -2.1265    1.6684    1.3773 H   0  0  0  0  0  0  0  0  0  0  0  0
   -2.7025    2.6287    2.7635 H   0  0  0  0  0  0  0  0  0  0  0  0
  1  2  2  0  0  0  0
  2 44  1  0  0  0  0
  3  4  1  0  0  0  0
  3  2  1  0  0  0  0
  4  5  1  0  0  0  0
  4 59  1  0  0  0  0
  5 62  1  0  0  0  0
  6 64  1  0  0  0  0
  6 63  1  0  0  0  0
  6  5  1  0  0  0  0
  7  8  1  6  0  0  0
  7  6  1  0  0  0  0
  9  7  1  0  0  0  0
 10  9  1  0  0  0  0
 10 11  1  0  0  0  0
 11 65  1  0  0  0  0
 11 12  1  0  0  0  0
 12 68  1  0  0  0  0
 12 67  1  0  0  0  0
 13 12  1  0  0  0  0
 13 16  1  0  0  0  0
 14 69  1  0  0  0  0
 14 13  1  0  0  0  0
 15 10  1  0  0  0  0
 15 14  1  0  0  0  0
 16 17  2  0  0  0  0
 16 18  1  0  0  0  0
 18 22  1  0  0  0  0
 19 18  2  0  0  0  0
 19 20  1  0  0  0  0
 20 21  2  0  0  0  0
 21 23  1  0  0  0  0
 21 75  1  0  0  0  0
 22 30  2  0  0  0  0
 22 23  1  0  0  0  0
 23 24  2  0  0  0  0
 24 28  1  0  0  0  0
 24 25  1  0  0  0  0
 25 26  1  0  0  0  0
 26 78  1  0  0  0  0
 26 77  1  0  0  0  0
 26 76  1  0  0  0  0
 27 79  1  0  0  0  0
 27 25  1  0  0  0  0
 28 82  1  0  0  0  0
 29 83  1  0  0  0  0
 29 28  2  0  0  0  0
 30 29  1  0  0  0  0
 31 16  2  0  0  0  0
 32  9  2  0  0  0  0
 33 34  1  0  0  0  0
 33  7  1  0  0  0  0
 34 35  1  0  0  0  0
 35 36  1  0  0  0  0
 36 86  1  0  0  0  0
 36 37  1  0  0  0  0
 37 38  2  0  0  0  0
 37 42  1  0  0  0  0
 38 39  1  0  0  0  0
 39 40  2  0  0  0  0
 40 90  1  0  0  0  0
 41 40  1  0  0  0  0
 41 91  1  0  0  0  0
 42 92  1  0  0  0  0
 42 41  2  0  0  0  0
 43 34  2  0  0  0  0
 44 93  1  0  0  0  0
 44 45  2  0  0  0  0
 45 94  1  0  0  0  0
 46 47  1  0  0  0  0
 47 97  1  0  0  0  0
 47 48  1  0  0  0  0
 48 50  1  0  0  0  0
 48 49  1  1  0  0  0
 50 51  1  0  0  0  0
 51 53  2  0  0  0  0
 52 51  1  0  0  0  0
 52100  1  0  0  0  0
 54 48  1  0  0  0  0
 54 57  2  0  0  0  0
 55 54  1  0  0  0  0
 56105  1  0  0  0  0
 56103  1  0  0  0  0
 56 55  1  0  0  0  0
 58  3  1  0  0  0  0
 60  4  1  0  0  0  0
 61  5  1  0  0  0  0
 66 11  1  0  0  0  0
 70 14  1  0  0  0  0
 71 15  1  0  0  0  0
 72 15  1  0  0  0  0
 73 19  1  0  0  0  0
 74 20  1  0  0  0  0
 80 27  1  0  0  0  0
 81 27  1  0  0  0  0
 84 30  1  0  0  0  0
 85 33  1  0  0  0  0
 87 36  1  0  0  0  0
 88 38  1  0  0  0  0
 89 39  1  0  0  0  0
 95 45  1  0  0  0  0
 96 47  1  0  0  0  0
 98 50  1  0  0  0  0
 99 52  1  0  0  0  0
101 52  1  0  0  0  0
102 55  1  0  0  0  0
104 56  1  0  0  0  0
M  END
