105
-1 1
O        -0.972164    4.691242    0.605329
C        -0.288833    3.699290    0.265801
N         0.089574    3.653652   -1.102731
C         0.327445    2.427382   -1.820452
C        -0.871556    1.473988   -1.870461
C        -0.642614    0.196804   -2.670837
C        -0.818391    0.347814   -4.198596
H        -0.061184    1.064393   -4.552595
C        -0.594313   -1.011320   -4.886006
N         0.700949   -1.446588   -5.037880
C         1.920998   -0.754504   -4.675456
C         2.644855   -1.482989   -3.550154
N         2.832380   -2.892717   -3.893288
C         1.599893   -3.578529   -4.288082
C         0.940457   -2.821201   -5.432407
S         3.835394   -3.756289   -2.853199
O         5.082351   -3.009181   -2.754618
C         2.935052   -3.728770   -1.303657
C         2.084475   -4.797025   -1.110905
C         1.165363   -4.789785   -0.042120
C         1.064000   -3.681375    0.760906
C         2.926176   -2.588477   -0.427677
C         1.903225   -2.553218    0.571267
C         1.758826   -1.395566    1.415400
N         0.670547   -1.352862    2.309199
C         0.899833   -0.638337    3.550169
C        -0.602318   -1.007404    1.678295
C         2.693264   -0.383233    1.324485
C         3.747155   -0.463415    0.391029
C         3.863541   -1.519059   -0.479022
O         3.847168   -5.127481   -3.349452
O        -1.536784   -1.687667   -5.244239
N        -2.079008    0.919728   -4.616220
C        -3.354516    0.650596   -4.216154
O        -3.416357   -0.231345   -3.208645
C        -4.560437   -0.150924   -2.351369
C        -4.296752    0.871228   -1.276133
C        -4.463658    2.233397   -1.554883
C        -4.014416    3.194943   -0.652306
C        -3.413485    2.811547    0.545366
C        -3.290396    1.457287    0.852481
C        -3.726040    0.493841   -0.056308
O        -4.320521    1.192287   -4.707993
C         0.089035    2.639279    1.112991
C        -0.347468    2.673262    2.505618
S         0.981918    3.304149    3.725912
C        -0.010628    3.680417    5.204229
C        -0.603998    2.472639    5.954632
H        -0.987144    2.816258    6.930687
N         0.418540    1.505533    6.216508
C         0.343279    0.640208    7.261923
C         1.366786   -0.477371    7.237191
O        -0.484497    0.744848    8.148187
C        -1.811965    1.813748    5.248382
N        -2.852321    2.655664    5.022764
C        -4.052284    2.259015    4.327820
O        -1.837821    0.631916    4.958514
H        -0.469355    4.334790   -1.605320
H         1.188148    1.898674   -1.371276
H         0.646224    2.694248   -2.846480
H        -1.747477    2.015750   -2.258186
H        -1.120409    1.211447   -0.833608
H        -1.319733   -0.594851   -2.328969
H         0.379953   -0.168404   -2.484481
H         1.719958    0.272858   -4.353797
H         2.577045   -0.703619   -5.562163
H         2.050527   -1.380085   -2.623698
H         3.627093   -1.025090   -3.378903
H         0.888640   -3.634918   -3.439714
H         1.854933   -4.598586   -4.600180
H        -0.024172   -3.274798   -5.686790
H         1.593896   -2.844438   -6.321332
H         2.135565   -5.646141   -1.793800
H         0.529895   -5.660429    0.129205
H         0.354061   -3.643911    1.588415
H         1.778564   -1.061561    4.061171
H         0.018881   -0.739426    4.199518
H         1.064815    0.447527    3.414697
H        -1.414639   -1.139180    2.408486
H        -0.795647   -1.664085    0.817220
H        -0.621174    0.040773    1.321473
H         2.602112    0.503627    1.952946
H         4.473458    0.351208    0.346205
H         4.679541   -1.554005   -1.196847
H        -2.063701    1.496118   -5.445962
H        -4.678499   -1.157845   -1.930695
H        -5.443191    0.100001   -2.955234
H        -4.898465    2.531277   -2.512409
H        -4.090033    4.256778   -0.895854
H        -2.970671    3.577281    1.186035
H        -2.804005    1.155087    1.782451
H        -3.581006   -0.567838    0.165951
H         0.712489    1.815066    0.760807
H        -0.639067    1.695653    2.914120
H        -1.170411    3.392937    2.629556
H        -0.802637    4.389266    4.915051
H         0.658331    4.215403    5.894202
H         1.070521    1.350860    5.452547
H         0.917145   -1.346775    6.733951
H         1.608754   -0.763439    8.268135
H         2.284018   -0.203090    6.697103
H        -2.724541    3.635838    5.231327
H        -4.005096    1.174599    4.171709
H        -4.133248    2.749792    3.345707
H        -4.949882    2.493235    4.921388
