-1 1
 OpenBabel05232414493D

 91 92  0  0  1  0  0  0  0  0999 V2000
    5.1575   -5.3555  -11.5614 O   0  0  0  0  0  0  0  0  0  0  0  0
    5.4195   -4.5563  -10.6326 C   0  0  0  0  0  0  0  0  0  0  0  0
    5.3888   -3.1915  -10.8805 N   0  0  0  0  0  0  0  0  0  0  0  0
    5.6307   -2.6755  -12.2092 C   0  0  0  0  0  0  0  0  0  0  0  0
    6.9650   -1.9250  -12.3315 C   0  0  0  0  0  0  0  0  0  0  0  0
    7.5426   -1.9779  -13.7425 C   0  0  0  0  0  0  0  0  0  0  0  0
    8.8434   -1.1916  -13.8693 C   0  0  0  0  0  0  0  0  0  0  0  0
    9.4915   -1.0719  -15.2709 C   0  0  1  0  0  0  0  0  0  0  0  0
    9.8563   -0.0375  -15.3295 H   0  0  0  0  0  0  0  0  0  0  0  0
   10.8318   -1.7760  -15.6230 C   0  0  0  0  0  0  0  0  0  0  0  0
   11.3617   -2.7939  -14.8784 N   0  0  0  0  0  0  0  0  0  0  0  0
   12.7580   -3.1300  -15.1022 C   0  0  0  0  0  0  0  0  0  0  0  0
   13.4511   -3.3331  -13.7654 C   0  0  0  0  0  0  0  0  0  0  0  0
   12.7648   -4.3897  -13.0265 N   0  0  0  0  0  0  0  0  0  0  0  0
   11.3289   -4.1732  -12.8480 C   0  0  0  0  0  0  0  0  0  0  0  0
   10.6551   -3.8502  -14.1733 C   0  0  0  0  0  0  0  0  0  0  0  0
   13.5608   -4.9979  -11.6910 S   0  0  0  0  0  0  0  0  0  0  0  0
   14.9782   -5.0352  -12.0303 O   0  0  0  0  0  0  0  0  0  0  0  0
   13.3365   -3.7979  -10.4204 C   0  0  0  0  0  0  0  0  0  0  0  0
   14.4439   -2.4844  -10.2187 S   0  0  0  0  0  0  0  0  0  0  0  0
   13.4362   -1.7890   -9.0098 C   0  0  0  0  0  0  0  0  0  0  0  0
   12.3087   -2.5309   -8.7791 C   0  0  0  0  0  0  0  0  0  0  0  0
   12.2457   -3.6941   -9.5944 C   0  0  0  0  0  0  0  0  0  0  0  0
   12.8518   -6.1998  -11.2784 O   0  0  0  0  0  0  0  0  0  0  0  0
   11.4603   -1.2729  -16.5382 O   0  0  0  0  0  0  0  0  0  0  0  0
    8.5703   -1.1691  -16.3920 N   0  0  0  0  0  0  0  0  0  0  0  0
    8.1641   -2.3070  -17.0198 C   0  0  0  0  0  0  0  0  0  0  0  0
    8.5457   -3.4029  -16.3402 O   0  0  0  0  0  0  0  0  0  0  0  0
    8.0221   -4.6548  -16.7897 C   0  0  0  0  0  0  0  0  0  0  0  0
    6.5679   -4.8347  -16.4310 C   0  0  0  0  0  0  0  0  0  0  0  0
    6.1919   -5.0818  -15.1072 C   0  0  0  0  0  0  0  0  0  0  0  0
    4.8512   -5.2314  -14.7552 C   0  0  0  0  0  0  0  0  0  0  0  0
    3.8704   -5.1394  -15.7425 C   0  0  0  0  0  0  0  0  0  0  0  0
    4.2315   -4.8919  -17.0672 C   0  0  0  0  0  0  0  0  0  0  0  0
    5.5733   -4.7330  -17.4087 C   0  0  0  0  0  0  0  0  0  0  0  0
    7.5450   -2.3298  -18.0573 O   0  0  0  0  0  0  0  0  0  0  0  0
    5.8215   -4.9932   -9.3287 C   0  0  0  0  0  3  0  0  0  0  0  0
    6.4559   -4.1903   -8.3781 C   0  0  0  0  0  3  0  0  0  0  0  0
    8.6175   -3.5822   -8.9966 S   0  0  0  0  0  1  0  0  0  0  0  0
    8.6259   -4.5627  -10.5095 C   0  0  0  0  0  0  0  0  0  0  0  0
    8.8482   -6.0749  -10.3362 C   0  0  2  0  0  0  0  0  0  0  0  0
    8.0943   -6.4495   -9.6313 H   0  0  0  0  0  0  0  0  0  0  0  0
   10.1431   -6.4048   -9.7966 N   0  0  0  0  0  0  0  0  0  0  0  0
   10.3013   -6.9404   -8.5528 C   0  0  0  0  0  0  0  0  0  0  0  0
   11.7443   -7.2241   -8.1777 C   0  0  0  0  0  0  0  0  0  0  0  0
    9.3842   -7.1373   -7.7779 O   0  0  0  0  0  0  0  0  0  0  0  0
    8.6915   -6.7787  -11.6901 C   0  0  0  0  0  0  0  0  0  0  0  0
    7.4327   -6.9823  -12.1251 N   0  0  0  0  0  0  0  0  0  0  0  0
    7.1963   -7.7262  -13.3376 C   0  0  0  0  0  0  0  0  0  0  0  0
    9.6754   -7.1200  -12.3418 O   0  0  0  0  0  0  0  0  0  0  0  0
    5.7456   -2.6170  -10.1274 H   0  0  0  0  0  0  0  0  0  0  0  0
    4.8017   -2.0253  -12.5440 H   0  0  0  0  0  0  0  0  0  0  0  0
    5.6254   -3.5426  -12.8808 H   0  0  0  0  0  0  0  0  0  0  0  0
    7.6879   -2.3603  -11.6241 H   0  0  0  0  0  0  0  0  0  0  0  0
    6.8414   -0.8735  -12.0154 H   0  0  0  0  0  0  0  0  0  0  0  0
    6.8103   -1.5852  -14.4678 H   0  0  0  0  0  0  0  0  0  0  0  0
    7.6929   -3.0287  -14.0263 H   0  0  0  0  0  0  0  0  0  0  0  0
    9.5923   -1.5674  -13.1535 H   0  0  0  0  0  0  0  0  0  0  0  0
    8.6299   -0.1633  -13.5336 H   0  0  0  0  0  0  0  0  0  0  0  0
   13.2265   -2.3134  -15.6618 H   0  0  0  0  0  0  0  0  0  0  0  0
   12.8391   -4.0498  -15.7087 H   0  0  0  0  0  0  0  0  0  0  0  0
   13.4369   -2.3788  -13.2013 H   0  0  0  0  0  0  0  0  0  0  0  0
   14.4946   -3.6326  -13.9200 H   0  0  0  0  0  0  0  0  0  0  0  0
   11.1525   -3.3404  -12.1381 H   0  0  0  0  0  0  0  0  0  0  0  0
   10.8835   -5.0958  -12.4514 H   0  0  0  0  0  0  0  0  0  0  0  0
    9.6126   -3.5781  -13.9927 H   0  0  0  0  0  0  0  0  0  0  0  0
   10.6464   -4.7559  -14.8051 H   0  0  0  0  0  0  0  0  0  0  0  0
   13.7403   -0.8631   -8.5235 H   0  0  0  0  0  0  0  0  0  0  0  0
   11.5243   -2.2731   -8.0678 H   0  0  0  0  0  0  0  0  0  0  0  0
   11.4205   -4.4104   -9.5584 H   0  0  0  0  0  0  0  0  0  0  0  0
    8.4235   -0.3434  -16.9547 H   0  0  0  0  0  0  0  0  0  0  0  0
    8.6437   -5.4035  -16.2807 H   0  0  0  0  0  0  0  0  0  0  0  0
    8.1712   -4.7388  -17.8754 H   0  0  0  0  0  0  0  0  0  0  0  0
    6.9510   -5.1586  -14.3238 H   0  0  0  0  0  0  0  0  0  0  0  0
    4.5995   -5.3997  -13.7025 H   0  0  0  0  0  0  0  0  0  0  0  0
    2.8174   -5.2557  -15.4744 H   0  0  0  0  0  0  0  0  0  0  0  0
    3.4627   -4.8103  -17.8396 H   0  0  0  0  0  0  0  0  0  0  0  0
    5.8586   -4.5048  -18.4378 H   0  0  0  0  0  0  0  0  0  0  0  0
    5.8525   -6.0788   -9.2114 H   0  0  0  0  0  0  0  0  0  0  0  0
    6.7358   -4.6632   -7.4349 H   0  0  0  0  0  0  0  0  0  0  0  0
    6.1813   -3.1387   -8.2619 H   0  0  0  0  0  0  0  0  0  0  0  0
    9.3880   -4.1535  -11.1866 H   0  0  0  0  0  0  0  0  0  0  0  0
    7.6636   -4.4392  -11.0243 H   0  0  0  0  0  0  0  0  0  0  0  0
   10.9023   -6.5047  -10.4680 H   0  0  0  0  0  0  0  0  0  0  0  0
   12.3797   -7.4301   -9.0497 H   0  0  0  0  0  0  0  0  0  0  0  0
   11.7696   -8.0638   -7.4720 H   0  0  0  0  0  0  0  0  0  0  0  0
   12.1482   -6.3359   -7.6669 H   0  0  0  0  0  0  0  0  0  0  0  0
    6.6205   -6.5369  -11.6737 H   0  0  0  0  0  0  0  0  0  0  0  0
    6.1426   -7.6171  -13.6218 H   0  0  0  0  0  0  0  0  0  0  0  0
    7.8288   -7.3637  -14.1625 H   0  0  0  0  0  0  0  0  0  0  0  0
    7.4224   -8.7970  -13.2007 H   0  0  0  0  0  0  0  0  0  0  0  0
  1  2  2  0  0  0  0
  2 37  1  0  0  0  0
  3  2  1  0  0  0  0
  3 51  1  0  0  0  0
  4  3  1  0  0  0  0
  5  4  1  0  0  0  0
  5 55  1  0  0  0  0
  5 54  1  0  0  0  0
  6  5  1  0  0  0  0
  7  6  1  0  0  0  0
  7 59  1  0  0  0  0
  7 58  1  0  0  0  0
  8  9  1  6  0  0  0
  8  7  1  0  0  0  0
 10  8  1  0  0  0  0
 10 11  1  0  0  0  0
 11 16  1  0  0  0  0
 12 11  1  0  0  0  0
 12 13  1  0  0  0  0
 13 62  1  0  0  0  0
 13 14  1  0  0  0  0
 14 15  1  0  0  0  0
 14 17  1  0  0  0  0
 15 65  1  0  0  0  0
 15 64  1  0  0  0  0
 16 66  1  0  0  0  0
 16 15  1  0  0  0  0
 17 24  2  0  0  0  0
 17 19  1  0  0  0  0
 18 17  2  0  0  0  0
 19 20  1  0  0  0  0
 19 23  2  0  0  0  0
 20 21  1  0  0  0  0
 21 22  2  0  0  0  0
 21 68  1  0  0  0  0
 22 69  1  0  0  0  0
 23 70  1  0  0  0  0
 23 22  1  0  0  0  0
 25 10  2  0  0  0  0
 26  8  1  0  0  0  0
 27 26  1  0  0  0  0
 27 28  1  0  0  0  0
 29 30  1  0  0  0  0
 29 28  1  0  0  0  0
 29 72  1  0  0  0  0
 30 31  1  0  0  0  0
 31 32  2  0  0  0  0
 31 74  1  0  0  0  0
 32 75  1  0  0  0  0
 33 76  1  0  0  0  0
 33 32  1  0  0  0  0
 34 33  2  0  0  0  0
 35 34  1  0  0  0  0
 35 30  2  0  0  0  0
 36 27  2  0  0  0  0
 37 79  1  0  0  0  0
 37 38  1  0  0  0  0
 38 81  1  0  0  0  0
 38 80  1  0  0  0  0
 40 41  1  0  0  0  0
 40 39  1  0  0  0  0
 41 43  1  0  0  0  0
 41 42  1  1  0  0  0
 43 44  1  0  0  0  0
 44 45  1  0  0  0  0
 44 46  2  0  0  0  0
 45 87  1  0  0  0  0
 45 86  1  0  0  0  0
 47 41  1  0  0  0  0
 48 47  1  0  0  0  0
 48 88  1  0  0  0  0
 49 91  1  0  0  0  0
 49 48  1  0  0  0  0
 50 47  2  0  0  0  0
 52  4  1  0  0  0  0
 53  4  1  0  0  0  0
 56  6  1  0  0  0  0
 57  6  1  0  0  0  0
 60 12  1  0  0  0  0
 61 12  1  0  0  0  0
 63 13  1  0  0  0  0
 67 16  1  0  0  0  0
 71 26  1  0  0  0  0
 73 29  1  0  0  0  0
 77 34  1  0  0  0  0
 78 35  1  0  0  0  0
 82 40  1  0  0  0  0
 83 40  1  0  0  0  0
 84 43  1  0  0  0  0
 85 45  1  0  0  0  0
 89 49  1  0  0  0  0
 90 49  1  0  0  0  0
M  END
