91
-1 1
O        -4.126548   -1.301011    0.864792
C        -3.905461   -0.562004    1.875289
N        -4.012214    0.828352    1.695269
C        -3.780915    1.428890    0.406730
C        -2.453422    2.197450    0.289024
C        -1.898675    2.187967   -1.131998
C        -0.609920    2.991510   -1.268415
C         0.021355    3.127925   -2.675689
H         0.387437    4.162415   -2.725476
C         1.357275    2.426601   -3.048741
N         1.896175    1.404828   -2.315257
C         3.297224    1.087249   -2.531054
C         3.989268    0.929644   -1.187093
N         3.319175   -0.121241   -0.424294
C         1.875664    0.059369   -0.263990
C         1.204880    0.346365   -1.599683
S         4.118023   -0.690175    0.925403
O         5.542149   -0.642569    0.618373
C         3.789819    0.488261    2.197062
S         4.735557    1.925228    2.367051
C         3.680229    2.506593    3.594487
C         2.656077    1.636161    3.857641
C         2.715057    0.467502    3.049518
O         3.472851   -1.930201    1.327564
O         1.977827    2.936705   -3.965365
N        -0.912797    3.045627   -3.786479
C        -1.323650    1.915887   -4.427463
O        -0.937847    0.810823   -3.766383
C        -1.462475   -0.434943   -4.233744
C        -2.917284   -0.623567   -3.882772
C        -3.299683   -0.873042   -2.561367
C        -4.639441   -1.045932   -2.216700
C        -5.614161   -0.970631   -3.211501
C        -5.248080   -0.716693   -4.533973
C        -3.906688   -0.537624   -4.867311
O        -1.948829    1.909087   -5.461300
C        -3.515739   -1.041645    3.129296
C        -2.827341   -0.247885    4.146001
S        -1.036963    0.403551    3.655204
C        -0.783085   -0.462660    2.092145
C        -0.541644   -1.976238    2.189266
H        -1.317751   -2.402525    2.836952
N         0.746018   -2.303779    2.750544
C         0.888475   -2.850646    3.991870
C         2.322737   -3.177844    4.366340
O        -0.033697   -3.021314    4.766339
C        -0.639379   -2.614666    0.795733
N        -1.872364   -2.787728    0.294350
C        -2.035894   -3.483080   -0.958510
O         0.379629   -2.940493    0.186767
H        -3.742498    1.387297    2.493891
H        -4.615194    2.096113    0.117504
H        -3.794403    0.601598   -0.313320
H        -1.715794    1.748136    0.971511
H        -2.578947    3.238827    0.637309
H        -2.649500    2.588703   -1.833498
H        -1.744383    1.146033   -1.444859
H         0.153272    2.619843   -0.565261
H        -0.831896    4.014865   -0.922867
H         3.752683    1.898273   -3.109337
H         3.395036    0.154100   -3.113964
H         3.953970    1.897864   -0.648392
H         5.038836    0.646255   -1.328859
H         1.672208    0.899180    0.430289
H         1.452440   -0.869697    0.142047
H         0.155236    0.599418   -1.433297
H         1.220014   -0.569880   -2.215755
H         3.882260    3.466025    4.068616
H         1.868921    1.808717    4.591427
H         1.991209   -0.349837    3.096345
H        -1.065068    3.878680   -4.336762
H        -0.841356   -1.189856   -3.733223
H        -1.309641   -0.504310   -5.320015
H        -2.549037   -0.936659   -1.769320
H        -4.882636   -1.223344   -1.162255
H        -6.667080   -1.105616   -2.951689
H        -6.012978   -0.647367   -5.311520
H        -3.618524   -0.307281   -5.895270
H        -3.487492   -2.129121    3.224312
H        -2.640988   -0.829332    5.056671
H        -3.309214    0.700772    4.435256
H         0.081466    0.025835    1.624058
H        -1.646520   -0.287428    1.440880
H         1.502570   -2.419148    2.077172
H         2.962324   -3.363662    3.492968
H         2.324660   -4.044460    5.039262
H         2.740592   -2.320249    4.916674
H        -2.723042   -2.340448    0.705299
H        -3.092719   -3.441409   -1.248751
H        -1.427732   -3.034341   -1.760683
H        -1.725633   -4.537497   -0.870921
