108
-1 1
O        -1.001517    3.370543    4.833342
C        -0.765736    2.700609    3.828160
N         0.542165    2.433289    3.498378
C         1.012669    1.496312    2.503794
C         0.835184    0.031427    2.918823
C         1.199510   -0.993866    1.842508
C         0.420165   -0.771139    0.550757
C         0.517178   -1.858919   -0.544965
H         1.572033   -2.069590   -0.770543
C        -0.256854   -3.093489   -0.093276
N         0.389225   -4.018338    0.679762
C        -0.398462   -5.060195    1.308518
C        -0.263565   -6.365458    0.523850
N         1.124325   -6.528302    0.081689
C         2.118960   -5.743443    0.790099
C         1.829248   -4.230906    0.723797
S         1.388992   -7.057251   -1.472866
O         0.375122   -8.075205   -1.716473
C         1.001752   -5.669018   -2.545102
C        -0.307180   -5.614263   -2.973512
C        -0.770270   -4.506059   -3.709250
C         0.104479   -3.514156   -4.067567
C         1.946193   -4.639220   -2.880253
C         1.480006   -3.581863   -3.722369
C         2.392526   -2.558951   -4.168602
N         1.950163   -1.628871   -5.122643
C         1.622668   -2.159118   -6.436239
C         2.666797   -0.376412   -5.211112
C         3.661869   -2.519022   -3.624383
C         4.093563   -3.529638   -2.743220
C         3.289434   -4.591607   -2.411416
O         2.805875   -7.387758   -1.567360
O        -1.451962   -3.170871   -0.324363
N        -0.115023   -1.374922   -1.750046
C         0.450271   -0.336002   -2.410475
O        -0.432702    0.277150   -3.215672
C        -0.119572    1.638120   -3.537200
C        -0.101292    2.507292   -2.303638
C         1.100223    3.034309   -1.822294
C         1.118937    3.786941   -0.649257
C        -0.061431    4.012324    0.057582
C        -1.269907    3.488295   -0.409513
C        -1.281308    2.738791   -1.585495
O         1.608175    0.004410   -2.279608
C        -1.816296    2.165955    2.945198
C        -3.120867    2.361536    3.218388
S        -4.145450    4.755796    1.783772
C        -2.519656    5.455783    2.184471
C        -2.448766    6.213518    3.524363
H        -2.552117    5.483078    4.346259
N        -3.509574    7.181732    3.583442
C        -3.713048    7.965822    4.662175
C        -4.933499    8.869421    4.575724
O        -2.964375    7.995937    5.625889
C        -1.070838    6.875747    3.622167
N        -0.143745    6.079696    4.222059
C         1.236368    6.455022    4.325330
O        -0.810115    7.955887    3.124194
H         1.196309    2.760155    4.199189
H         2.076278    1.710067    2.310087
H         0.498983    1.701384    1.553647
H        -0.220531   -0.113112    3.203572
H         1.427635   -0.155362    3.830042
H         0.988162   -1.997071    2.246432
H         2.282808   -0.960555    1.627542
H         0.767103    0.158784    0.077912
H        -0.650874   -0.632700    0.779367
H        -1.446595   -4.742518    1.330310
H        -0.055315   -5.182614    2.348764
H        -0.925520   -6.319334   -0.351055
H        -0.579962   -7.228143    1.132562
H         3.112304   -5.965845    0.382039
H         2.132063   -6.089122    1.836216
H         2.288038   -3.810086   -0.178441
H         2.289343   -3.732349    1.595089
H        -0.985449   -6.431531   -2.727316
H        -1.827124   -4.436414   -3.970058
H        -0.249235   -2.627017   -4.593845
H         1.134593   -3.138150   -6.363463
H         2.530298   -2.282243   -7.062398
H         0.938167   -1.472402   -6.958592
H         3.660279   -0.478492   -5.697492
H         2.784739    0.053499   -4.208377
H         2.075453    0.325277   -5.819040
H         4.354657   -1.725784   -3.902116
H         5.114548   -3.490866   -2.356414
H         3.681259   -5.404867   -1.806297
H        -1.122862   -1.487767   -1.789013
H        -0.916879    1.938871   -4.229294
H         0.845146    1.683885   -4.062562
H         2.028561    2.832310   -2.361595
H         2.062383    4.196264   -0.280032
H        -0.047397    4.597719    0.979103
H        -2.203710    3.679436    0.135067
H        -2.227482    2.329507   -1.950928
H        -1.528689    1.636038    2.035172
H        -3.424768    2.892728    4.121575
H        -3.903626    1.938294    2.592453
H        -2.187217    6.142942    1.387704
H        -1.772087    4.646339    2.248328
H        -4.260735    7.000455    2.918015
H        -5.367411    8.972868    5.578809
H        -5.694963    8.497287    3.875572
H        -4.608909    9.866398    4.240849
H        -0.452183    5.196814    4.630167
H         1.548561    6.603408    5.373759
H         1.367445    7.403836    3.787595
H         1.898361    5.695276    3.873350
