-1 1
 OpenBabel05192410563D

 71 74  0  0  1  0  0  0  0  0999 V2000
    1.0691    2.1198   -1.9025 O   0  0  0  0  0  0  0  0  0  0  0  0
   -0.1291    2.1445   -2.2584 C   0  0  0  0  0  0  0  0  0  0  0  0
   -0.9121    3.2483   -1.7966 N   0  0  0  0  0  0  0  0  0  0  0  0
   -2.3043    3.1969   -1.4076 C   0  0  0  0  0  0  0  0  0  0  0  0
   -2.4718    3.1199    0.1140 C   0  0  0  0  0  0  0  0  0  0  0  0
   -1.6676    4.2025    0.8411 C   0  0  0  0  0  0  0  0  0  0  0  0
   -0.2278    4.3276    0.3348 C   0  0  2  0  0  0  0  0  0  0  0  0
    0.2187    5.2646    0.7046 H   0  0  0  0  0  0  0  0  0  0  0  0
   -0.2088    4.3534   -1.2048 C   0  0  0  0  0  0  0  0  0  0  0  0
    0.6256    3.2527    0.8300 N   0  0  0  0  0  0  0  0  0  0  0  0
    0.1372    2.1024    1.3070 N   0  0  0  0  0  0  0  0  0  0  0  0
    1.1364    1.2542    1.4428 C   0  0  0  0  0  0  0  0  0  0  0  0
    0.8778   -0.0827    2.0017 C   0  0  0  0  0  0  0  0  0  0  0  0
   -0.3699   -0.6869    1.8101 C   0  0  0  0  0  0  0  0  0  0  0  0
   -0.6352   -1.9480    2.3292 C   0  0  0  0  0  0  0  0  0  0  0  0
    0.3434   -2.6228    3.0546 C   0  0  0  0  0  0  0  0  0  0  0  0
    0.0962   -3.9972    3.6106 C   0  0  0  0  0  0  0  0  0  0  0  0
    0.9638   -4.8957    3.1279 F   0  0  0  0  0  0  0  0  0  0  0  0
    0.2445   -4.0172    4.9494 F   0  0  0  0  0  0  0  0  0  0  0  0
   -1.1323   -4.4468    3.3497 F   0  0  0  0  0  0  0  0  0  0  0  0
    1.5854   -2.0236    3.2715 C   0  0  0  0  0  0  0  0  0  0  0  0
    1.8478   -0.7609    2.7551 C   0  0  0  0  0  0  0  0  0  0  0  0
    1.9635    3.1679    0.6336 C   0  0  0  0  0  0  0  0  0  0  0  0
    2.3551    1.8739    1.0119 C   0  0  0  0  0  0  0  0  0  0  0  0
    3.7027    1.5587    0.7160 C   0  0  2  0  0  3  0  0  0  0  0  0
    4.2348    0.3138    0.8837 N   0  0  0  0  0  0  0  0  0  0  0  0
    4.5139    2.5097    0.2558 N   0  0  0  0  0  0  0  0  0  0  0  0
    4.0100    3.7312    0.0310 C   0  0  0  0  0  0  0  0  0  0  0  0
    2.7641    4.1361    0.1714 N   0  0  0  0  0  2  0  0  0  0  0  0
   -0.6894    1.1624   -3.1059 C   0  0  0  0  0  3  0  0  0  0  0  0
   -1.9671    1.1823   -3.8286 C   0  0  0  0  0  0  0  0  0  0  0  0
   -3.3833   -0.0137   -3.2687 S   0  0  0  0  0  0  0  0  0  0  0  0
   -3.0537   -0.4571   -1.5331 C   0  0  0  0  0  0  0  0  0  0  0  0
   -2.1445   -1.6715   -1.2803 C   0  0  2  0  0  0  0  0  0  0  0  0
   -2.2532   -1.9621   -0.2208 H   0  0  0  0  0  0  0  0  0  0  0  0
   -0.7764   -1.3104   -1.5381 N   0  0  0  0  0  0  0  0  0  0  0  0
    0.2787   -1.9886   -1.0211 C   0  0  0  0  0  0  0  0  0  0  0  0
    1.6228   -1.3249   -1.2627 C   0  0  0  0  0  0  0  0  0  0  0  0
    0.1655   -3.0503   -0.4285 O   0  0  0  0  0  0  0  0  0  0  0  0
   -2.6640   -2.8895   -2.0542 C   0  0  0  0  0  0  0  0  0  0  0  0
   -1.9039   -3.2732   -3.1038 N   0  0  0  0  0  0  0  0  0  0  0  0
   -2.2857   -4.3294   -3.9977 C   0  0  0  0  0  0  0  0  0  0  0  0
   -3.7081   -3.4283   -1.7286 O   0  0  0  0  0  0  0  0  0  0  0  0
   -2.8085    2.3424   -1.8687 H   0  0  0  0  0  0  0  0  0  0  0  0
   -2.8207    4.1037   -1.7862 H   0  0  0  0  0  0  0  0  0  0  0  0
   -2.1278    2.1346    0.4584 H   0  0  0  0  0  0  0  0  0  0  0  0
   -3.5393    3.2104    0.3752 H   0  0  0  0  0  0  0  0  0  0  0  0
   -1.6759    4.0295    1.9281 H   0  0  0  0  0  0  0  0  0  0  0  0
   -2.1408    5.1845    0.6657 H   0  0  0  0  0  0  0  0  0  0  0  0
    0.8279    4.3501   -1.5589 H   0  0  0  0  0  0  0  0  0  0  0  0
   -0.6864    5.3041   -1.5165 H   0  0  0  0  0  0  0  0  0  0  0  0
   -1.1212   -0.1648    1.2163 H   0  0  0  0  0  0  0  0  0  0  0  0
   -1.5973   -2.4248    2.1418 H   0  0  0  0  0  0  0  0  0  0  0  0
    2.3493   -2.5439    3.8534 H   0  0  0  0  0  0  0  0  0  0  0  0
    2.8119   -0.2872    2.9503 H   0  0  0  0  0  0  0  0  0  0  0  0
    3.6003   -0.4741    0.8614 H   0  0  0  0  0  0  0  0  0  0  0  0
    5.1284    0.1810    0.4267 H   0  0  0  0  0  0  0  0  0  0  0  0
    4.7292    4.4767   -0.3291 H   0  0  0  0  0  0  0  0  0  0  0  0
    0.0771    0.4880   -3.4985 H   0  0  0  0  0  0  0  0  0  0  0  0
   -1.8562    0.8445   -4.8698 H   0  0  0  0  0  0  0  0  0  0  0  0
   -2.4432    2.1712   -3.8539 H   0  0  0  0  0  0  0  0  0  0  0  0
   -4.0425   -0.6681   -1.1045 H   0  0  0  0  0  0  0  0  0  0  0  0
   -2.6291    0.4084   -1.0030 H   0  0  0  0  0  0  0  0  0  0  0  0
   -0.6321   -0.3797   -1.9797 H   0  0  0  0  0  0  0  0  0  0  0  0
    1.5566   -0.2268   -1.3497 H   0  0  0  0  0  0  0  0  0  0  0  0
    2.0585   -1.7163   -2.1957 H   0  0  0  0  0  0  0  0  0  0  0  0
    2.2862   -1.6201   -0.4387 H   0  0  0  0  0  0  0  0  0  0  0  0
   -1.0970   -2.6975   -3.3067 H   0  0  0  0  0  0  0  0  0  0  0  0
   -3.1700   -4.8211   -3.5718 H   0  0  0  0  0  0  0  0  0  0  0  0
   -1.4807   -5.0740   -4.1059 H   0  0  0  0  0  0  0  0  0  0  0  0
   -2.5484   -3.9438   -4.9971 H   0  0  0  0  0  0  0  0  0  0  0  0
  2  1  2  0  0  0  0
  2  3  1  0  0  0  0
  3  4  1  0  0  0  0
  3  9  1  0  0  0  0
  4  5  1  0  0  0  0
  5 47  1  0  0  0  0
  5 46  1  0  0  0  0
  5  6  1  0  0  0  0
  6 48  1  0  0  0  0
  7  8  1  1  0  0  0
  7 10  1  0  0  0  0
  7  6  1  0  0  0  0
  9  7  1  0  0  0  0
 10 11  1  0  0  0  0
 11 12  2  0  0  0  0
 12 13  1  0  0  0  0
 13 22  1  0  0  0  0
 14 13  2  0  0  0  0
 14 15  1  0  0  0  0
 15 16  2  0  0  0  0
 16 21  1  0  0  0  0
 16 17  1  0  0  0  0
 17 19  1  0  0  0  0
 18 17  1  0  0  0  0
 20 17  1  0  0  0  0
 21 54  1  0  0  0  0
 22 55  1  0  0  0  0
 22 21  2  0  0  0  0
 23 10  1  0  0  0  0
 23 24  2  0  0  0  0
 24 12  1  0  0  0  0
 25 26  1  1  0  0  0
 25 24  1  0  0  0  0
 27 25  1  0  0  0  0
 28 29  1  0  0  0  0
 28 27  2  0  0  0  0
 29 23  1  0  0  0  0
 30  2  1  0  0  0  0
 31 32  1  0  0  0  0
 31 30  1  0  0  0  0
 32 33  1  0  0  0  0
 33 34  1  0  0  0  0
 33 62  1  0  0  0  0
 33 63  1  0  0  0  0
 34 35  1  1  0  0  0
 36 34  1  0  0  0  0
 36 37  1  0  0  0  0
 37 39  2  0  0  0  0
 38 37  1  0  0  0  0
 38 67  1  0  0  0  0
 40 43  2  0  0  0  0
 40 34  1  0  0  0  0
 41 40  1  0  0  0  0
 42 69  1  0  0  0  0
 42 41  1  0  0  0  0
 44  4  1  0  0  0  0
 45  4  1  0  0  0  0
 49  6  1  0  0  0  0
 50  9  1  0  0  0  0
 51  9  1  0  0  0  0
 52 14  1  0  0  0  0
 53 15  1  0  0  0  0
 56 26  1  0  0  0  0
 57 26  1  0  0  0  0
 58 28  1  0  0  0  0
 59 30  1  0  0  0  0
 60 31  1  0  0  0  0
 61 31  1  0  0  0  0
 64 36  1  0  0  0  0
 65 38  1  0  0  0  0
 66 38  1  0  0  0  0
 68 41  1  0  0  0  0
 70 42  1  0  0  0  0
 71 42  1  0  0  0  0
M  END
