-1 1
 OpenBabel05192410563D

 71 74  0  0  1  0  0  0  0  0999 V2000
    0.2931    0.3428   -0.6168 O   0  0  0  0  0  0  0  0  0  0  0  0
    0.3584    1.5881   -0.4601 C   0  0  0  0  0  0  0  0  0  0  0  0
    1.2714    2.0594    0.5324 N   0  0  0  0  0  0  0  0  0  0  0  0
    0.9918    3.1377    1.4519 C   0  0  0  0  0  0  0  0  0  0  0  0
    0.7097    2.6446    2.8788 C   0  0  0  0  0  0  0  0  0  0  0  0
    1.7347    1.6142    3.3636 C   0  0  0  0  0  0  0  0  0  0  0  0
    2.0389    0.5292    2.3276 C   0  0  2  0  0  0  0  0  0  0  0  0
    2.9231   -0.0479    2.6364 H   0  0  0  0  0  0  0  0  0  0  0  0
    2.3229    1.1751    0.9601 C   0  0  0  0  0  0  0  0  0  0  0  0
    0.9720   -0.4578    2.2044 N   0  0  0  0  0  0  0  0  0  0  0  0
   -0.3204   -0.1006    2.1697 N   0  0  0  0  0  0  0  0  0  0  0  0
   -1.0095   -1.1054    1.6804 C   0  0  0  0  0  0  0  0  0  0  0  0
   -2.4419   -0.9445    1.3793 C   0  0  0  0  0  0  0  0  0  0  0  0
   -3.3767   -1.9295    1.7028 C   0  0  0  0  0  0  0  0  0  0  0  0
   -4.7190   -1.7705    1.3476 C   0  0  0  0  0  0  0  0  0  0  0  0
   -5.6808   -2.8813    1.6637 C   0  0  0  0  0  0  0  0  0  0  0  0
   -5.4233   -3.9779    0.9303 F   0  0  0  0  0  0  0  0  0  0  0  0
   -5.6079   -3.2606    2.9467 F   0  0  0  0  0  0  0  0  0  0  0  0
   -6.9538   -2.5450    1.4241 F   0  0  0  0  0  0  0  0  0  0  0  0
   -5.1398   -0.6184    0.6866 C   0  0  0  0  0  0  0  0  0  0  0  0
   -4.2065    0.3706    0.3726 C   0  0  0  0  0  0  0  0  0  0  0  0
   -2.8652    0.2117    0.7030 C   0  0  0  0  0  0  0  0  0  0  0  0
    1.1389   -1.7104    1.7109 C   0  0  0  0  0  0  0  0  0  0  0  0
   -0.1343   -2.1915    1.3710 C   0  0  0  0  0  0  0  0  0  0  0  0
   -0.1534   -3.4642    0.7551 C   0  0  2  0  0  3  0  0  0  0  0  0
   -1.2956   -4.0555    0.3104 N   0  0  0  0  0  0  0  0  0  0  0  0
    0.9878   -4.1375    0.6096 N   0  0  0  0  0  0  0  0  0  0  0  0
    2.1281   -3.5624    1.0208 C   0  0  0  0  0  0  0  0  0  0  0  0
    2.2958   -2.3705    1.5598 N   0  0  0  0  0  2  0  0  0  0  0  0
   -0.3402    2.5096   -1.2624 C   0  0  0  0  0  3  0  0  0  0  0  0
   -0.0603    3.9411   -1.5023 C   0  0  0  0  0  0  0  0  0  0  0  0
    1.1577    4.3948   -2.8941 S   0  0  0  0  0  0  0  0  0  0  0  0
    2.6962    3.7058   -2.2110 C   0  0  0  0  0  0  0  0  0  0  0  0
    3.1953    2.4217   -2.8731 C   0  0  2  0  0  0  0  0  0  0  0  0
    3.5104    2.6216   -3.9133 H   0  0  0  0  0  0  0  0  0  0  0  0
    2.1450    1.4260   -2.9071 N   0  0  0  0  0  0  0  0  0  0  0  0
    2.1023    0.3863   -3.7598 C   0  0  0  0  0  0  0  0  0  0  0  0
    0.8065   -0.3887   -3.7308 C   0  0  0  0  0  0  0  0  0  0  0  0
    3.0389    0.0909   -4.5071 O   0  0  0  0  0  0  0  0  0  0  0  0
    4.4401    1.9071   -2.1094 C   0  0  0  0  0  0  0  0  0  0  0  0
    5.0283    0.8375   -2.6926 N   0  0  0  0  0  0  0  0  0  0  0  0
    6.1152    0.1282   -2.0735 C   0  0  0  0  0  0  0  0  0  0  0  0
    4.8464    2.4358   -1.0861 O   0  0  0  0  0  0  0  0  0  0  0  0
    0.1118    3.6870    1.0993 H   0  0  0  0  0  0  0  0  0  0  0  0
    1.8445    3.8495    1.4644 H   0  0  0  0  0  0  0  0  0  0  0  0
   -0.2873    2.1867    2.8969 H   0  0  0  0  0  0  0  0  0  0  0  0
    0.7003    3.5078    3.5657 H   0  0  0  0  0  0  0  0  0  0  0  0
    1.4072    1.1547    4.3101 H   0  0  0  0  0  0  0  0  0  0  0  0
    2.6943    2.1202    3.5678 H   0  0  0  0  0  0  0  0  0  0  0  0
    2.4513    0.3936    0.2017 H   0  0  0  0  0  0  0  0  0  0  0  0
    3.2735    1.7368    1.0352 H   0  0  0  0  0  0  0  0  0  0  0  0
   -3.0539   -2.8276    2.2355 H   0  0  0  0  0  0  0  0  0  0  0  0
   -6.1890   -0.4988    0.4129 H   0  0  0  0  0  0  0  0  0  0  0  0
   -4.5258    1.2705   -0.1570 H   0  0  0  0  0  0  0  0  0  0  0  0
   -2.1234    0.9624    0.4159 H   0  0  0  0  0  0  0  0  0  0  0  0
   -2.1034   -3.4767    0.1232 H   0  0  0  0  0  0  0  0  0  0  0  0
   -1.1609   -4.8679   -0.2769 H   0  0  0  0  0  0  0  0  0  0  0  0
    3.0339   -4.1635    0.8759 H   0  0  0  0  0  0  0  0  0  0  0  0
   -1.0536    2.0357   -1.9443 H   0  0  0  0  0  0  0  0  0  0  0  0
    0.3451    4.4891   -0.6427 H   0  0  0  0  0  0  0  0  0  0  0  0
   -0.9571    4.4868   -1.8357 H   0  0  0  0  0  0  0  0  0  0  0  0
    2.5339    3.5051   -1.1425 H   0  0  0  0  0  0  0  0  0  0  0  0
    3.4858    4.4653   -2.2767 H   0  0  0  0  0  0  0  0  0  0  0  0
    1.3031    1.6289   -2.3559 H   0  0  0  0  0  0  0  0  0  0  0  0
    0.0901    0.0905   -4.4164 H   0  0  0  0  0  0  0  0  0  0  0  0
    0.3811   -0.3804   -2.7128 H   0  0  0  0  0  0  0  0  0  0  0  0
    0.9948   -1.4119   -4.0793 H   0  0  0  0  0  0  0  0  0  0  0  0
    4.5440    0.4402   -3.5058 H   0  0  0  0  0  0  0  0  0  0  0  0
    6.4552    0.7109   -1.2075 H   0  0  0  0  0  0  0  0  0  0  0  0
    6.9583    0.0011   -2.7720 H   0  0  0  0  0  0  0  0  0  0  0  0
    5.8031   -0.8699   -1.7226 H   0  0  0  0  0  0  0  0  0  0  0  0
  1  2  2  0  0  0  0
  2  3  1  0  0  0  0
  3  9  1  0  0  0  0
  3  4  1  0  0  0  0
  4 45  1  0  0  0  0
  4  5  1  0  0  0  0
  5 46  1  0  0  0  0
  5  6  1  0  0  0  0
  5 47  1  0  0  0  0
  6 49  1  0  0  0  0
  6 48  1  0  0  0  0
  7  8  1  1  0  0  0
  7  6  1  0  0  0  0
  9 51  1  0  0  0  0
  9  7  1  0  0  0  0
 10  7  1  0  0  0  0
 11 10  1  0  0  0  0
 12 11  2  0  0  0  0
 13 12  1  0  0  0  0
 13 14  1  0  0  0  0
 14 52  1  0  0  0  0
 15 16  1  0  0  0  0
 15 14  2  0  0  0  0
 16 18  1  0  0  0  0
 17 16  1  0  0  0  0
 19 16  1  0  0  0  0
 20 15  1  0  0  0  0
 21 20  2  0  0  0  0
 21 22  1  0  0  0  0
 22 13  2  0  0  0  0
 23 10  1  0  0  0  0
 24 12  1  0  0  0  0
 24 23  2  0  0  0  0
 25 26  1  1  0  0  0
 25 24  1  0  0  0  0
 27 25  1  0  0  0  0
 27 28  2  0  0  0  0
 28 29  1  0  0  0  0
 29 23  1  0  0  0  0
 30  2  1  0  0  0  0
 31 30  1  0  0  0  0
 31 60  1  0  0  0  0
 32 33  1  0  0  0  0
 32 31  1  0  0  0  0
 33 62  1  0  0  0  0
 34 35  1  6  0  0  0
 34 33  1  0  0  0  0
 34 40  1  0  0  0  0
 36 34  1  0  0  0  0
 36 64  1  0  0  0  0
 37 38  1  0  0  0  0
 37 36  1  0  0  0  0
 38 66  1  0  0  0  0
 39 37  2  0  0  0  0
 40 43  2  0  0  0  0
 41 40  1  0  0  0  0
 41 42  1  0  0  0  0
 42 71  1  0  0  0  0
 42 69  1  0  0  0  0
 44  4  1  0  0  0  0
 50  9  1  0  0  0  0
 53 20  1  0  0  0  0
 54 21  1  0  0  0  0
 55 22  1  0  0  0  0
 56 26  1  0  0  0  0
 57 26  1  0  0  0  0
 58 28  1  0  0  0  0
 59 30  1  0  0  0  0
 61 31  1  0  0  0  0
 63 33  1  0  0  0  0
 65 38  1  0  0  0  0
 67 38  1  0  0  0  0
 68 41  1  0  0  0  0
 70 42  1  0  0  0  0
M  END
