-1 1
 OpenBabel05232413493D

 71 73  0  0  1  0  0  0  0  0999 V2000
    0.4853   -0.1927   -1.1421 O   0  0  0  0  0  0  0  0  0  0  0  0
    0.4354    0.9951   -0.8341 C   0  0  0  0  0  0  0  0  0  0  0  0
    1.3842    1.5692   -0.0412 N   0  0  0  0  0  0  0  0  0  0  0  0
    1.2934    2.8453    0.6552 C   0  0  0  0  0  0  0  0  0  0  0  0
    0.9228    2.6186    2.1239 C   0  0  0  0  0  0  0  0  0  0  0  0
    1.8099    1.5601    2.7942 C   0  0  0  0  0  0  0  0  0  0  0  0
    2.0553    0.3114    1.9393 C   0  0  2  0  0  0  0  0  0  0  0  0
    2.8862   -0.2734    2.3599 H   0  0  0  0  0  0  0  0  0  0  0  0
    2.4211    0.7181    0.5065 C   0  0  0  0  0  0  0  0  0  0  0  0
    0.9163   -0.6020    1.9156 N   0  0  0  0  0  0  0  0  0  0  0  0
   -0.3530   -0.1806    1.9819 N   0  0  0  0  0  0  0  0  0  0  0  0
   -1.1358   -1.1877    1.6506 C   0  0  0  0  0  0  0  0  0  0  0  0
   -2.5965   -1.0032    1.6376 C   0  0  0  0  0  0  0  0  0  0  0  0
   -3.4623   -2.0376    1.9996 C   0  0  0  0  0  0  0  0  0  0  0  0
   -4.8460   -1.8509    1.9519 C   0  0  0  0  0  0  0  0  0  0  0  0
   -5.7332   -3.0134    2.3078 C   0  0  0  0  0  0  0  0  0  0  0  0
   -5.5509   -4.0408    1.4630 F   0  0  0  0  0  0  0  0  0  0  0  0
   -5.4745   -3.4797    3.5356 F   0  0  0  0  0  0  0  0  0  0  0  0
   -7.0317   -2.6984    2.2685 F   0  0  0  0  0  0  0  0  0  0  0  0
   -5.3809   -0.6227    1.5736 C   0  0  0  0  0  0  0  0  0  0  0  0
   -4.5179    0.4227    1.2405 C   0  0  0  0  0  0  0  0  0  0  0  0
   -3.1414    0.2366    1.2666 C   0  0  0  0  0  0  0  0  0  0  0  0
    0.9788   -1.8963    1.5138 C   0  0  0  0  0  0  0  0  0  0  0  0
   -0.3416   -2.3343    1.3262 C   0  0  0  0  0  0  0  0  0  0  0  0
   -0.4613   -3.6415    0.7894 C   0  0  2  0  0  3  0  0  0  0  0  0
   -1.6514   -4.2075    0.4535 N   0  0  0  0  0  0  0  0  0  0  0  0
    0.6357   -4.3738    0.6058 N   0  0  0  0  0  0  0  0  0  0  0  0
    1.8304   -3.8330    0.8847 C   0  0  0  0  0  0  0  0  0  0  0  0
    2.0907   -2.6145    1.3165 N   0  0  0  0  0  2  0  0  0  0  0  0
   -0.7264    1.7920   -1.3408 C   0  0  0  0  0  0  0  0  0  0  0  0
   -0.7248    3.0029   -1.9029 C   0  0  0  0  0  0  0  0  0  0  0  0
    1.9026    4.9776   -3.5364 S   0  0  0  0  0  1  0  0  0  0  0  0
    3.1749    4.3389   -2.3902 C   0  0  0  0  0  0  0  0  0  0  0  0
    3.6751    2.9199   -2.7262 C   0  0  2  0  0  0  0  0  0  0  0  0
    4.3800    2.9706   -3.5780 H   0  0  0  0  0  0  0  0  0  0  0  0
    2.5294    2.1137   -3.1223 N   0  0  0  0  0  0  0  0  0  0  0  0
    2.5775    0.9706   -3.8339 C   0  0  0  0  0  0  0  0  0  0  0  0
    1.2414    0.4982   -4.3617 C   0  0  0  0  0  0  0  0  0  0  0  0
    3.6018    0.3082   -4.0136 O   0  0  0  0  0  0  0  0  0  0  0  0
    4.4503    2.3103   -1.5377 C   0  0  0  0  0  0  0  0  0  0  0  0
    4.9736    1.0885   -1.7822 N   0  0  0  0  0  0  0  0  0  0  0  0
    5.7035    0.3421   -0.7943 C   0  0  0  0  0  0  0  0  0  0  0  0
    4.5982    2.8972   -0.4704 O   0  0  0  0  0  0  0  0  0  0  0  0
    0.5602    3.4945    0.1696 H   0  0  0  0  0  0  0  0  0  0  0  0
    2.2779    3.3335    0.5640 H   0  0  0  0  0  0  0  0  0  0  0  0
   -0.1270    2.2990    2.1797 H   0  0  0  0  0  0  0  0  0  0  0  0
    1.0124    3.5703    2.6714 H   0  0  0  0  0  0  0  0  0  0  0  0
    1.3951    1.2703    3.7722 H   0  0  0  0  0  0  0  0  0  0  0  0
    2.8056    1.9948    2.9818 H   0  0  0  0  0  0  0  0  0  0  0  0
    2.5487   -0.1610   -0.1345 H   0  0  0  0  0  0  0  0  0  0  0  0
    3.3601    1.2891    0.5344 H   0  0  0  0  0  0  0  0  0  0  0  0
   -3.0552   -2.9968    2.3281 H   0  0  0  0  0  0  0  0  0  0  0  0
   -6.4619   -0.4835    1.5386 H   0  0  0  0  0  0  0  0  0  0  0  0
   -4.9276    1.3901    0.9434 H   0  0  0  0  0  0  0  0  0  0  0  0
   -2.4638    1.0455    0.9874 H   0  0  0  0  0  0  0  0  0  0  0  0
   -2.4452   -3.6112    0.2638 H   0  0  0  0  0  0  0  0  0  0  0  0
   -1.5831   -5.0668   -0.0767 H   0  0  0  0  0  0  0  0  0  0  0  0
    2.6936   -4.4871    0.7156 H   0  0  0  0  0  0  0  0  0  0  0  0
   -1.6384    1.1852   -1.3532 H   0  0  0  0  0  0  0  0  0  0  0  0
    0.1600    3.6434   -2.0326 H   0  0  0  0  0  0  0  0  0  0  0  0
   -1.6495    3.3960   -2.3363 H   0  0  0  0  0  0  0  0  0  0  0  0
    2.7826    4.3174   -1.3629 H   0  0  0  0  0  0  0  0  0  0  0  0
    4.0548    4.9978   -2.3614 H   0  0  0  0  0  0  0  0  0  0  0  0
    1.7431    2.7544   -3.3318 H   0  0  0  0  0  0  0  0  0  0  0  0
    0.5965    1.3394   -4.6535 H   0  0  0  0  0  0  0  0  0  0  0  0
    0.7374   -0.0624   -3.5585 H   0  0  0  0  0  0  0  0  0  0  0  0
    1.4114   -0.1675   -5.2167 H   0  0  0  0  0  0  0  0  0  0  0  0
    4.7002    0.6471   -2.6710 H   0  0  0  0  0  0  0  0  0  0  0  0
    5.9647    1.0175    0.0313 H   0  0  0  0  0  0  0  0  0  0  0  0
    6.6307   -0.0714   -1.2222 H   0  0  0  0  0  0  0  0  0  0  0  0
    5.1127   -0.4968   -0.3859 H   0  0  0  0  0  0  0  0  0  0  0  0
  1  2  2  0  0  0  0
  2  3  1  0  0  0  0
  3  9  1  0  0  0  0
  3  4  1  0  0  0  0
  4  5  1  0  0  0  0
  5 46  1  0  0  0  0
  5 47  1  0  0  0  0
  5  6  1  0  0  0  0
  6 49  1  0  0  0  0
  6 48  1  0  0  0  0
  7  8  1  1  0  0  0
  7  6  1  0  0  0  0
  9 51  1  0  0  0  0
  9  7  1  0  0  0  0
 10  7  1  0  0  0  0
 10 11  1  0  0  0  0
 12 11  2  0  0  0  0
 13 12  1  0  0  0  0
 13 14  1  0  0  0  0
 14 52  1  0  0  0  0
 15 14  2  0  0  0  0
 15 16  1  0  0  0  0
 16 18  1  0  0  0  0
 17 16  1  0  0  0  0
 19 16  1  0  0  0  0
 20 15  1  0  0  0  0
 21 22  1  0  0  0  0
 21 20  2  0  0  0  0
 22 13  2  0  0  0  0
 23 10  1  0  0  0  0
 24 23  2  0  0  0  0
 24 12  1  0  0  0  0
 25 26  1  1  0  0  0
 25 24  1  0  0  0  0
 27 25  1  0  0  0  0
 27 28  2  0  0  0  0
 28 29  1  0  0  0  0
 29 23  1  0  0  0  0
 30  2  1  0  0  0  0
 31 30  2  0  0  0  0
 32 33  1  0  0  0  0
 33 63  1  0  0  0  0
 33 62  1  0  0  0  0
 34 35  1  6  0  0  0
 34 33  1  0  0  0  0
 34 40  1  0  0  0  0
 36 34  1  0  0  0  0
 37 36  1  0  0  0  0
 38 37  1  0  0  0  0
 38 66  1  0  0  0  0
 39 37  2  0  0  0  0
 40 43  2  0  0  0  0
 41 40  1  0  0  0  0
 41 42  1  0  0  0  0
 42 71  1  0  0  0  0
 42 69  1  0  0  0  0
 44  4  1  0  0  0  0
 45  4  1  0  0  0  0
 50  9  1  0  0  0  0
 53 20  1  0  0  0  0
 54 21  1  0  0  0  0
 55 22  1  0  0  0  0
 56 26  1  0  0  0  0
 57 26  1  0  0  0  0
 58 28  1  0  0  0  0
 59 30  1  0  0  0  0
 60 31  1  0  0  0  0
 61 31  1  0  0  0  0
 64 36  1  0  0  0  0
 65 38  1  0  0  0  0
 67 38  1  0  0  0  0
 68 41  1  0  0  0  0
 70 42  1  0  0  0  0
M  END
