68
-1 1
O        -0.328055    0.209262   -4.943246
C         0.290072    0.549104   -3.923157
N        -0.407732    1.473878   -3.019699
C        -1.829236    1.586522   -3.261498
C        -2.523928    2.150782   -2.025463
C        -1.897140    3.470080   -1.568356
C        -0.368876    3.424350   -1.527937
H         0.030007    4.449572   -1.473388
C         0.183352    2.767699   -2.802203
N         0.141600    2.759281   -0.327982
N        -0.567361    1.901636    0.427277
C         0.245811    1.392896    1.335372
C        -0.254284    0.411919    2.317432
C        -1.451797    0.649554    3.005017
C        -1.960878   -0.294965    3.890698
C        -1.262841   -1.482611    4.082402
F        -1.758145   -2.389939    4.930429
C        -0.080560   -1.754524    3.408501
C         0.418797   -0.799726    2.525066
C         1.429712    2.819161    0.089719
C         1.554547    1.936162    1.171616
C         2.851149    1.853013    1.739758
N         3.140738    1.075189    2.806851
N         3.835257    2.589185    1.222060
C         3.559852    3.395737    0.186616
N         2.407321    3.578404   -0.427575
C         1.579677    0.132196   -3.543773
C         2.163415    0.200381   -2.208499
S         1.789366   -1.283760   -0.998445
C        -0.009647   -1.289984   -1.227028
C        -0.716495   -2.278335   -0.297382
H        -0.400870   -2.094328    0.736561
N        -0.375869   -3.648069   -0.572024
C         0.346044   -4.418793    0.274454
C         0.669006   -5.804839   -0.250019
O         0.751903   -4.037577    1.360999
C        -2.241058   -2.106531   -0.332233
N        -2.672780   -0.889963    0.090973
C        -4.067277   -0.548642    0.183942
O        -2.988814   -3.000178   -0.687646
H        -2.220450    0.593823   -3.517869
H        -2.039469    2.232342   -4.144145
H        -2.443533    1.414599   -1.216136
H        -3.596488    2.306176   -2.231703
H        -2.295734    3.784636   -0.590955
H        -2.157283    4.259885   -2.293734
H         1.275287    2.689554   -2.746804
H        -0.040226    3.469433   -3.641417
H        -1.987750    1.584558    2.830528
H        -2.893641   -0.128049    4.431944
H         0.402937   -2.727027    3.503400
H         1.297426   -1.037591    1.915649
H         2.481023    0.378283    3.121185
H         4.118680    0.964474    3.035955
H         4.409168    3.976896   -0.191990
H         2.061406   -0.529242   -4.269900
H         1.837025    1.054735   -1.607589
H         3.263533    0.176764   -2.199512
H        -0.231408   -1.526564   -2.280355
H        -0.375495   -0.267204   -1.060557
H        -0.758324   -4.053047   -1.415919
H         1.625537   -5.755708   -0.792045
H        -0.098883   -6.190951   -0.935503
H         0.786790   -6.487232    0.600482
H        -1.987763   -0.176164    0.318816
H        -4.648916   -1.426059   -0.125606
H        -4.320715    0.297123   -0.474593
H        -4.342971   -0.283505    1.218078
