68
-1 1
O         6.135373   -0.574258    8.528132
C         6.806942   -0.069247    9.430103
N         6.168279    0.926501   10.249449
C         4.737650    1.054266   10.067734
C         4.101454    1.657794   11.315676
C         4.764357    2.977828   11.715776
C         6.291920    2.896303   11.723999
H         6.717951    3.911693   11.747460
C         6.799667    2.207083   10.448126
N         6.804767    2.236713   12.922559
N         6.073464    1.417616   13.698520
C         6.882775    0.866279   14.582811
C         6.349176   -0.095695   15.566732
C         5.167707    0.193293   16.262985
C         4.618360   -0.734485   17.142838
C         5.257984   -1.957240   17.317712
F         4.721150   -2.848006   18.158214
C         6.421727   -2.280143   16.633873
C         6.963475   -1.340720   15.758609
C         8.105158    2.234575   13.307201
C         8.214086    1.343375   14.383605
C         9.524698    1.177217   14.898652
N         9.812073    0.361143   15.937574
N        10.528191    1.870155   14.356897
C        10.263475    2.700045   13.339033
N         9.103269    2.944127   12.759649
C         8.164760   -0.430213    9.718161
C         8.847955   -0.284266   10.939818
S         8.495281   -1.872828   12.451124
C         6.707398   -1.868623   12.161292
C         5.937237   -2.913974   12.978626
H         6.151857   -2.776721   14.044369
N         6.337199   -4.259462   12.674428
C         6.986179   -5.055030   13.555500
C         7.502414   -6.355594   12.970001
O         7.181478   -4.759823   14.724260
C         4.422528   -2.754326   12.802993
N         3.931580   -1.587842   13.306347
C         2.534592   -1.248352   13.262407
O         3.725931   -3.599786   12.272410
H         4.326227    0.060661    9.852895
H         4.504663    1.683552    9.179135
H         4.203675    0.940723   12.140432
H         3.024873    1.823336   11.143182
H         4.397720    3.326290   12.693617
H         4.501954    3.752532   10.974961
H         7.889311    2.103314   10.479399
H         6.570856    2.899700    9.604831
H         4.676797    1.154791   16.100621
H         3.698227   -0.527577   17.691947
H         6.854006   -3.278813   16.708456
H         7.821415   -1.614803   15.131572
H         9.139261   -0.337948   16.219486
H        10.792608    0.170871   16.094406
H        11.128998    3.241902   12.939216
H         8.579637   -1.118063    8.976167
H         8.547974    0.514044   11.617596
H         9.931928   -0.429122   10.927539
H         6.524125   -2.039025   11.086129
H         6.310264   -0.865968   12.378421
H         6.194055   -4.578166   11.725766
H         8.505873   -6.172391   12.556504
H         6.860909   -6.741749   12.164754
H         7.583981   -7.099714   13.771475
H         4.580879   -0.915430   13.699549
H         2.000894   -2.093770   12.809890
H         2.352959   -0.348299   12.653431
H         2.134290   -1.073467   14.274646
