-1 1
 OpenBabel05232413493D

 68 70  0  0  1  0  0  0  0  0999 V2000
   -2.2950    0.7746   -4.4164 O   0  0  0  0  0  0  0  0  0  0  0  0
   -1.3362    1.2446   -3.8286 C   0  0  0  0  0  0  0  0  0  0  0  0
   -1.4333    2.4051   -3.0935 N   0  0  0  0  0  0  0  0  0  0  0  0
   -2.7474    2.9823   -2.8731 C   0  0  0  0  0  0  0  0  0  0  0  0
   -2.8753    3.4448   -1.4244 C   0  0  0  0  0  0  0  0  0  0  0  0
   -1.7427    4.3981   -1.0391 C   0  0  0  0  0  0  0  0  0  0  0  0
   -0.3540    3.8732   -1.4161 C   0  0  2  0  0  0  0  0  0  0  0  0
    0.3720    4.6992   -1.3901 H   0  0  0  0  0  0  0  0  0  0  0  0
   -0.3400    3.3216   -2.8459 C   0  0  0  0  0  0  0  0  0  0  0  0
    0.1692    2.9100   -0.4646 N   0  0  0  0  0  0  0  0  0  0  0  0
   -0.5872    2.0808    0.2704 N   0  0  0  0  0  0  0  0  0  0  0  0
    0.2187    1.3508    1.0275 C   0  0  0  0  0  0  0  0  0  0  0  0
   -0.4212    0.4683    2.0308 C   0  0  0  0  0  0  0  0  0  0  0  0
   -1.7297    0.7822    2.4424 C   0  0  0  0  0  0  0  0  0  0  0  0
   -2.4158   -0.0260    3.3405 C   0  0  0  0  0  0  0  0  0  0  0  0
   -1.7884   -1.1643    3.8378 C   0  0  0  0  0  0  0  0  0  0  0  0
   -2.4529   -1.9412    4.6975 F   0  0  0  0  0  0  0  0  0  0  0  0
   -0.5001   -1.5030    3.4556 C   0  0  0  0  0  0  0  0  0  0  0  0
    0.1811   -0.6781    2.5617 C   0  0  0  0  0  0  0  0  0  0  0  0
    1.4860    2.7423   -0.1941 C   0  0  0  0  0  0  0  0  0  0  0  0
    1.5921    1.7008    0.7478 C   0  0  0  0  0  0  0  0  0  0  0  0
    2.9425    1.4077    1.1412 C   0  0  2  0  0  3  0  0  0  0  0  0
    3.3238    0.3850    1.9176 N   0  0  0  0  0  0  0  0  0  0  0  0
    3.9184    2.2319    0.7056 N   0  0  0  0  0  0  0  0  0  0  0  0
    3.6393    3.1970   -0.1624 C   0  0  0  0  0  0  0  0  0  0  0  0
    2.4686    3.4977   -0.7024 N   0  0  0  0  0  2  0  0  0  0  0  0
   -0.0397    0.5001   -3.8184 C   0  0  0  0  0  0  0  0  0  0  0  0
    0.6458    0.2201   -2.7091 C   0  0  0  0  0  0  0  0  0  0  0  0
    2.8046   -2.6410    1.1508 S   0  0  0  0  0  1  0  0  0  0  0  0
    1.5561   -2.2575   -0.1212 C   0  0  0  0  0  0  0  0  0  0  0  0
    0.2066   -2.9713    0.0876 C   0  0  2  0  0  0  0  0  0  0  0  0
   -0.1729   -2.7431    1.0908 H   0  0  0  0  0  0  0  0  0  0  0  0
    0.3461   -4.4028    0.0438 N   0  0  0  0  0  0  0  0  0  0  0  0
    0.0486   -5.1931    1.1064 C   0  0  0  0  0  0  0  0  0  0  0  0
    0.5802   -6.6109    1.0027 C   0  0  0  0  0  0  0  0  0  0  0  0
   -0.5761   -4.8115    2.0803 O   0  0  0  0  0  0  0  0  0  0  0  0
   -0.7883   -2.4800   -0.9629 C   0  0  0  0  0  0  0  0  0  0  0  0
   -1.5583   -1.4433   -0.5366 N   0  0  0  0  0  0  0  0  0  0  0  0
   -2.4725   -0.7247   -1.3834 C   0  0  0  0  0  0  0  0  0  0  0  0
   -0.8297   -2.9366   -2.0920 O   0  0  0  0  0  0  0  0  0  0  0  0
   -3.4947    2.2216   -3.1274 H   0  0  0  0  0  0  0  0  0  0  0  0
   -2.9016    3.8360   -3.5645 H   0  0  0  0  0  0  0  0  0  0  0  0
   -2.8488    2.5666   -0.7640 H   0  0  0  0  0  0  0  0  0  0  0  0
   -3.8476    3.9431   -1.2835 H   0  0  0  0  0  0  0  0  0  0  0  0
   -1.7698    4.6276    0.0363 H   0  0  0  0  0  0  0  0  0  0  0  0
   -1.8769    5.3527   -1.5769 H   0  0  0  0  0  0  0  0  0  0  0  0
    0.6229    2.8406   -3.0484 H   0  0  0  0  0  0  0  0  0  0  0  0
   -0.4303    4.1851   -3.5359 H   0  0  0  0  0  0  0  0  0  0  0  0
   -2.2082    1.6751    2.0386 H   0  0  0  0  0  0  0  0  0  0  0  0
   -3.4312    0.2123    3.6617 H   0  0  0  0  0  0  0  0  0  0  0  0
   -0.0462   -2.4327    3.8021 H   0  0  0  0  0  0  0  0  0  0  0  0
    1.1719   -1.0164    2.2497 H   0  0  0  0  0  0  0  0  0  0  0  0
    2.9405   -0.5870    1.7826 H   0  0  0  0  0  0  0  0  0  0  0  0
    4.3355    0.3430    1.9961 H   0  0  0  0  0  0  0  0  0  0  0  0
    4.4918    3.8109   -0.4799 H   0  0  0  0  0  0  0  0  0  0  0  0
    0.2122    0.0241   -4.7699 H   0  0  0  0  0  0  0  0  0  0  0  0
    0.3486    0.6187   -1.7352 H   0  0  0  0  0  0  0  0  0  0  0  0
    1.4989   -0.4614   -2.7219 H   0  0  0  0  0  0  0  0  0  0  0  0
    1.9245   -2.5212   -1.1287 H   0  0  0  0  0  0  0  0  0  0  0  0
    1.3459   -1.1732   -0.1527 H   0  0  0  0  0  0  0  0  0  0  0  0
    0.9199   -4.7792   -0.6986 H   0  0  0  0  0  0  0  0  0  0  0  0
    1.6112   -6.6181    1.3884 H   0  0  0  0  0  0  0  0  0  0  0  0
    0.5947   -6.9818   -0.0328 H   0  0  0  0  0  0  0  0  0  0  0  0
   -0.0350   -7.2704    1.6267 H   0  0  0  0  0  0  0  0  0  0  0  0
   -1.4601   -1.1452    0.4260 H   0  0  0  0  0  0  0  0  0  0  0  0
   -2.3124   -1.0439   -2.4208 H   0  0  0  0  0  0  0  0  0  0  0  0
   -2.2877    0.3584   -1.3091 H   0  0  0  0  0  0  0  0  0  0  0  0
   -3.5245   -0.9216   -1.1157 H   0  0  0  0  0  0  0  0  0  0  0  0
  1  2  2  0  0  0  0
  2 27  1  0  0  0  0
  2  3  1  0  0  0  0
  3  4  1  0  0  0  0
  3  9  1  0  0  0  0
  4  5  1  0  0  0  0
  5 44  1  0  0  0  0
  5  6  1  0  0  0  0
  5 43  1  0  0  0  0
  6 45  1  0  0  0  0
  7  8  1  1  0  0  0
  7  6  1  0  0  0  0
  7 10  1  0  0  0  0
  9  7  1  0  0  0  0
 10 20  1  0  0  0  0
 10 11  1  0  0  0  0
 11 12  2  0  0  0  0
 12 13  1  0  0  0  0
 13 14  2  0  0  0  0
 13 19  1  0  0  0  0
 14 15  1  0  0  0  0
 15 50  1  0  0  0  0
 15 16  2  0  0  0  0
 16 17  1  0  0  0  0
 18 51  1  0  0  0  0
 18 16  1  0  0  0  0
 19 18  2  0  0  0  0
 20 21  2  0  0  0  0
 21 12  1  0  0  0  0
 21 22  1  0  0  0  0
 22 23  1  1  0  0  0
 23 54  1  0  0  0  0
 24 22  1  0  0  0  0
 25 24  2  0  0  0  0
 26 20  1  0  0  0  0
 26 25  1  0  0  0  0
 27 28  2  0  0  0  0
 28 57  1  0  0  0  0
 30 31  1  0  0  0  0
 30 29  1  0  0  0  0
 31 32  1  1  0  0  0
 33 31  1  0  0  0  0
 33 34  1  0  0  0  0
 34 36  2  0  0  0  0
 35 34  1  0  0  0  0
 35 62  1  0  0  0  0
 35 64  1  0  0  0  0
 37 38  1  0  0  0  0
 37 31  1  0  0  0  0
 38 65  1  0  0  0  0
 39 67  1  0  0  0  0
 39 68  1  0  0  0  0
 39 38  1  0  0  0  0
 40 37  2  0  0  0  0
 41  4  1  0  0  0  0
 42  4  1  0  0  0  0
 46  6  1  0  0  0  0
 47  9  1  0  0  0  0
 48  9  1  0  0  0  0
 49 14  1  0  0  0  0
 52 19  1  0  0  0  0
 53 23  1  0  0  0  0
 55 25  1  0  0  0  0
 56 27  1  0  0  0  0
 58 28  1  0  0  0  0
 59 30  1  0  0  0  0
 60 30  1  0  0  0  0
 61 33  1  0  0  0  0
 63 35  1  0  0  0  0
 66 39  1  0  0  0  0
M  END
