79
-1 1
C        -0.218321    4.012354   -5.391175
O        -0.736519    3.448472   -6.560827
C        -1.554942    4.292855   -7.319161
C        -2.651954    3.481975   -7.981998
O        -3.732933    3.179999   -7.114706
C        -3.451085    2.715086   -5.868339
C        -3.836131    3.452090   -4.777044
C        -2.773046    1.468719   -5.686382
O        -2.464568    0.802831   -6.817461
C        -1.606484   -0.301804   -6.726888
C        -2.469832    1.042379   -4.412398
C        -2.851395    1.808615   -3.281033
C        -3.551126    3.020870   -3.454987
N        -3.927449    3.804818   -2.402704
C        -3.592397    3.361129   -1.219117
N        -2.932718    2.230326   -0.912728
C        -2.560705    1.445051   -1.910470
N        -1.895678    0.297200   -1.662094
C        -1.437577   -0.266980   -0.471148
C        -1.604031    0.149734    0.800826
C        -1.079360   -0.583510    1.996125
O        -1.328556   -0.096078    3.127595
C        -0.403642   -1.784139    1.726691
C         0.022767   -2.147166    0.397755
S         1.833134   -1.419727   -0.157834
C         2.222644   -0.271092    1.182112
C         3.352251   -0.749093    2.094180
H         4.272297   -0.906407    1.504153
N         3.010965   -2.020279    2.698415
C         3.920637   -2.923528    3.095661
C         3.366814   -4.269659    3.506129
O         5.131400   -2.695190    3.130937
C         3.684922    0.320644    3.158780
N         4.775171    0.008101    3.901518
C         5.212285    0.817051    5.005107
O         3.037887    1.344840    3.291341
C        -0.756576   -1.561979   -0.738210
O        -0.815807   -2.073967   -1.845493
O         0.236389   -2.532316    2.722156
C        -0.384458   -2.690910    3.988366
C         0.593207   -2.233546    5.045785
C         1.258359   -3.120193    5.887498
F         0.958032   -4.430585    5.840091
C         2.252207   -2.712091    6.771019
C         2.600455   -1.364345    6.812692
C         1.948614   -0.447728    5.986164
C         0.953022   -0.880961    5.116245
H         0.371402    3.238614   -4.882167
H        -1.025437    4.340349   -4.708566
H         0.440707    4.877008   -5.601276
H        -0.963409    4.812569   -8.100280
H        -2.020299    5.073293   -6.685929
H        -2.215567    2.560920   -8.399577
H        -3.098007    4.065948   -8.799896
H        -4.352459    4.401546   -4.920664
H        -1.423918   -0.644447   -7.752750
H        -2.058972   -1.128093   -6.151692
H        -0.645254   -0.025399   -6.260856
H        -1.927680    0.106411   -4.281422
H        -3.879526    3.978333   -0.358649
H        -1.673243   -0.319174   -2.439525
H        -2.144449    1.069379    1.017965
H         0.197686   -3.218246    0.250785
H         1.303506   -0.111379    1.771978
H         2.485119    0.704709    0.755957
H         2.013254   -2.264062    2.727500
H         3.874876   -5.042437    2.912147
H         2.282199   -4.348122    3.360701
H         3.605869   -4.447816    4.563618
H         5.199707   -0.908045    3.729705
H         4.643127    1.755830    4.988653
H         6.286329    1.051675    4.927416
H         5.036911    0.318009    5.973660
H        -0.641519   -3.752712    4.126837
H        -1.287567   -2.070659    4.040056
H         2.744359   -3.456968    7.398969
H         3.388708   -1.032873    7.493395
H         2.228438    0.607079    5.994092
H         0.426480   -0.188323    4.450570
