-1 1
 OpenBabel05232414493D

 79 82  0  0  1  0  0  0  0  0999 V2000
   14.3460    4.6161  -14.3797 C   0  0  0  0  0  0  0  0  0  0  0  0
   13.8222    4.0859  -15.5629 O   0  0  0  0  0  0  0  0  0  0  0  0
   13.0556    4.9722  -16.3273 C   0  0  0  0  0  0  0  0  0  0  0  0
   11.9331    4.2175  -17.0136 C   0  0  0  0  0  0  0  0  0  0  0  0
   10.8242    3.9615  -16.1662 O   0  0  0  0  0  0  0  0  0  0  0  0
   11.0628    3.4826  -14.9164 C   0  0  0  0  0  0  0  0  0  0  0  0
   10.6826    4.2303  -13.8307 C   0  0  0  0  0  0  0  0  0  0  0  0
   11.6932    2.2124  -14.7253 C   0  0  0  0  0  0  0  0  0  0  0  0
   11.9992    1.5387  -15.8517 O   0  0  0  0  0  0  0  0  0  0  0  0
   12.8324    0.4155  -15.7501 C   0  0  0  0  0  0  0  0  0  0  0  0
   11.9592    1.7737  -13.4474 C   0  0  0  0  0  0  0  0  0  0  0  0
   11.5827    2.5504  -12.3215 C   0  0  0  0  0  0  0  0  0  0  0  0
   10.9280    3.7863  -12.5049 C   0  0  0  0  0  0  0  0  0  0  0  0
   10.5617    4.5807  -11.4571 N   0  0  0  0  0  0  0  0  0  0  0  0
   10.8630    4.1254  -10.2691 C   0  0  0  0  0  0  0  0  0  0  0  0
   11.4787    2.9716   -9.9547 N   0  0  0  0  0  0  0  0  0  0  0  0
   11.8381    2.1764  -10.9479 C   0  0  0  0  0  0  0  0  0  0  0  0
   12.4595    1.0038  -10.6918 N   0  0  0  0  0  0  0  0  0  0  0  0
   12.9014    0.4359   -9.5024 C   0  0  0  0  0  0  0  0  0  0  0  0
   12.7456    0.8635   -8.2337 C   0  0  0  0  0  0  0  0  0  0  0  0
   13.2758    0.1229   -7.0511 C   0  0  0  0  0  0  0  0  0  0  0  0
   13.0656    0.6001   -5.9176 O   0  0  0  0  0  0  0  0  0  0  0  0
   13.9482   -1.1004   -7.3273 C   0  0  1  0  0  3  0  0  0  0  0  0
   14.2932   -1.4820   -8.6392 C   0  0  2  0  0  0  0  0  0  0  0  0
   16.1607   -0.5599   -9.3827 S   0  0  0  0  0  0  0  0  0  0  0  0
   16.5160    0.5504   -8.0094 C   0  0  0  0  0  0  0  0  0  0  0  0
   17.6708    0.0976   -7.1160 C   0  0  2  0  0  0  0  0  0  0  0  0
   18.5856   -0.0254   -7.7210 H   0  0  0  0  0  0  0  0  0  0  0  0
   17.3791   -1.1905   -6.5189 N   0  0  0  0  0  0  0  0  0  0  0  0
   18.3218   -2.0665   -6.1381 C   0  0  0  0  0  0  0  0  0  0  0  0
   17.8123   -3.4231   -5.7034 C   0  0  0  0  0  0  0  0  0  0  0  0
   19.5267   -1.8075   -6.1321 O   0  0  0  0  0  0  0  0  0  0  0  0
   17.9859    1.1555   -6.0346 C   0  0  0  0  0  0  0  0  0  0  0  0
   19.1213    0.8831   -5.3437 N   0  0  0  0  0  0  0  0  0  0  0  0
   19.5560    1.6808   -4.2312 C   0  0  0  0  0  0  0  0  0  0  0  0
   17.2887    2.1364   -5.8411 O   0  0  0  0  0  0  0  0  0  0  0  0
   13.5492   -0.8846   -9.7721 C   0  0  0  0  0  0  0  0  0  0  0  0
   13.4435   -1.4028  -10.8742 O   0  0  0  0  0  0  0  0  0  0  0  0
   14.6195   -1.8182   -6.3370 O   0  0  0  0  0  0  0  0  0  0  0  0
   14.0410   -1.9869   -5.0529 C   0  0  0  0  0  0  0  0  0  0  0  0
   15.0518   -1.5297   -4.0274 C   0  0  0  0  0  0  0  0  0  0  0  0
   15.7357   -2.4182   -3.2024 C   0  0  0  0  0  0  0  0  0  0  0  0
   15.4319   -3.7273   -3.2437 F   0  0  0  0  0  0  0  0  0  0  0  0
   16.7519   -2.0123   -2.3437 C   0  0  0  0  0  0  0  0  0  0  0  0
   17.1057   -0.6657   -2.3118 C   0  0  0  0  0  0  0  0  0  0  0  0
   16.4388    0.2517   -3.1250 C   0  0  0  0  0  0  0  0  0  0  0  0
   15.4210   -0.1794   -3.9696 C   0  0  0  0  0  0  0  0  0  0  0  0
   14.8927    3.8126  -13.8687 H   0  0  0  0  0  0  0  0  0  0  0  0
   13.5430    4.9735  -13.7070 H   0  0  0  0  0  0  0  0  0  0  0  0
   15.0457    5.4525  -14.5714 H   0  0  0  0  0  0  0  0  0  0  0  0
   13.6827    5.4694  -17.0952 H   0  0  0  0  0  0  0  0  0  0  0  0
   12.6166    5.7690  -15.6955 H   0  0  0  0  0  0  0  0  0  0  0  0
   12.3327    3.2791  -17.4292 H   0  0  0  0  0  0  0  0  0  0  0  0
   11.5285    4.8264  -17.8348 H   0  0  0  0  0  0  0  0  0  0  0  0
   10.2039    5.1981  -13.9814 H   0  0  0  0  0  0  0  0  0  0  0  0
   13.0241    0.0715  -16.7738 H   0  0  0  0  0  0  0  0  0  0  0  0
   12.3531   -0.4022  -15.1846 H   0  0  0  0  0  0  0  0  0  0  0  0
   13.7912    0.6712  -15.2679 H   0  0  0  0  0  0  0  0  0  0  0  0
   12.4696    0.8212  -13.3090 H   0  0  0  0  0  0  0  0  0  0  0  0
   10.5842    4.7513   -9.4123 H   0  0  0  0  0  0  0  0  0  0  0  0
   12.6649    0.3752  -11.4651 H   0  0  0  0  0  0  0  0  0  0  0  0
   12.2275    1.7951   -8.0153 H   0  0  0  0  0  0  0  0  0  0  0  0
   14.5949   -2.5192   -8.7964 H   0  0  0  0  0  0  0  0  0  0  0  0
   15.5972    0.6471   -7.4006 H   0  0  0  0  0  0  0  0  0  0  0  0
   16.7257    1.5580   -8.3898 H   0  0  0  0  0  0  0  0  0  0  0  0
   16.3920   -1.4608   -6.4512 H   0  0  0  0  0  0  0  0  0  0  0  0
   18.3233   -4.1886   -6.3042 H   0  0  0  0  0  0  0  0  0  0  0  0
   16.7263   -3.5290   -5.8191 H   0  0  0  0  0  0  0  0  0  0  0  0
   18.0836   -3.5852   -4.6510 H   0  0  0  0  0  0  0  0  0  0  0  0
   19.5759   -0.0119   -5.5472 H   0  0  0  0  0  0  0  0  0  0  0  0
   18.9458    2.5933   -4.2044 H   0  0  0  0  0  0  0  0  0  0  0  0
   20.6157    1.9655   -4.3344 H   0  0  0  0  0  0  0  0  0  0  0  0
   19.4335    1.1493   -3.2715 H   0  0  0  0  0  0  0  0  0  0  0  0
   13.7959   -3.0510   -4.9112 H   0  0  0  0  0  0  0  0  0  0  0  0
   13.1336   -1.3774   -4.9665 H   0  0  0  0  0  0  0  0  0  0  0  0
   17.2573   -2.7585   -1.7280 H   0  0  0  0  0  0  0  0  0  0  0  0
   17.9116   -0.3362   -1.6512 H   0  0  0  0  0  0  0  0  0  0  0  0
   16.7220    1.3055   -3.1275 H   0  0  0  0  0  0  0  0  0  0  0  0
   14.8905    0.5188   -4.6244 H   0  0  0  0  0  0  0  0  0  0  0  0
  1 48  1  0  0  0  0
  1 49  1  0  0  0  0
  2  1  1  0  0  0  0
  3 52  1  0  0  0  0
  3  2  1  0  0  0  0
  4  3  1  0  0  0  0
  4  5  1  0  0  0  0
  5  6  1  0  0  0  0
  6  8  2  0  0  0  0
  6  7  1  0  0  0  0
  7 13  2  0  0  0  0
  8 11  1  0  0  0  0
  9 10  1  0  0  0  0
  9  8  1  0  0  0  0
 10 58  1  0  0  0  0
 10 57  1  0  0  0  0
 11 59  1  0  0  0  0
 11 12  2  0  0  0  0
 12 17  1  0  0  0  0
 13 12  1  0  0  0  0
 13 14  1  0  0  0  0
 14 15  2  0  0  0  0
 15 16  1  0  0  0  0
 15 60  1  0  0  0  0
 17 18  1  0  0  0  0
 17 16  2  0  0  0  0
 18 19  1  0  0  0  0
 19 20  2  0  0  0  0
 20 62  1  0  0  0  0
 20 21  1  0  0  0  0
 21 22  2  0  0  0  0
 23 21  1  0  0  0  0
 23 39  1  1  0  0  0
 24 63  1  6  0  0  0
 24 23  1  0  0  0  0
 25 24  1  0  0  0  0
 25 26  1  0  0  0  0
 26 64  1  0  0  0  0
 26 27  1  0  0  0  0
 27 28  1  6  0  0  0
 27 29  1  0  0  0  0
 27 33  1  0  0  0  0
 29 66  1  0  0  0  0
 29 30  1  0  0  0  0
 30 32  2  0  0  0  0
 30 31  1  0  0  0  0
 31 69  1  0  0  0  0
 33 36  2  0  0  0  0
 33 34  1  0  0  0  0
 34 35  1  0  0  0  0
 35 71  1  0  0  0  0
 35 73  1  0  0  0  0
 37 19  1  0  0  0  0
 37 24  1  0  0  0  0
 38 37  2  0  0  0  0
 39 40  1  0  0  0  0
 40 75  1  0  0  0  0
 40 74  1  0  0  0  0
 40 41  1  0  0  0  0
 41 47  2  0  0  0  0
 41 42  1  0  0  0  0
 42 44  2  0  0  0  0
 43 42  1  0  0  0  0
 44 45  1  0  0  0  0
 44 76  1  0  0  0  0
 45 77  1  0  0  0  0
 46 45  2  0  0  0  0
 47 46  1  0  0  0  0
 50  1  1  0  0  0  0
 51  3  1  0  0  0  0
 53  4  1  0  0  0  0
 54  4  1  0  0  0  0
 55  7  1  0  0  0  0
 56 10  1  0  0  0  0
 61 18  1  0  0  0  0
 65 26  1  0  0  0  0
 67 31  1  0  0  0  0
 68 31  1  0  0  0  0
 70 34  1  0  0  0  0
 72 35  1  0  0  0  0
 78 46  1  0  0  0  0
 79 47  1  0  0  0  0
M  END
