-1 1
 OpenBabel05232413493D

 79 81  0  0  1  0  0  0  0  0999 V2000
    0.7801    2.5108   -3.0762 C   0  0  0  0  0  0  0  0  0  0  0  0
    0.6953    2.3933   -4.4721 O   0  0  0  0  0  0  0  0  0  0  0  0
    0.5518    3.5878   -5.1793 C   0  0  0  0  0  0  0  0  0  0  0  0
   -0.3059    3.3592   -6.4120 C   0  0  0  0  0  0  0  0  0  0  0  0
   -1.7044    3.3478   -6.1517 O   0  0  0  0  0  0  0  0  0  0  0  0
   -2.1440    2.7175   -5.0319 C   0  0  0  0  0  0  0  0  0  0  0  0
   -2.7898    3.4491   -4.0661 C   0  0  0  0  0  0  0  0  0  0  0  0
   -1.9083    1.3181   -4.8393 C   0  0  0  0  0  0  0  0  0  0  0  0
   -1.2787    0.6826   -5.8436 O   0  0  0  0  0  0  0  0  0  0  0  0
   -0.6160   -0.5221   -5.5405 C   0  0  0  0  0  0  0  0  0  0  0  0
   -2.2704    0.7292   -3.6508 C   0  0  0  0  0  0  0  0  0  0  0  0
   -2.9076    1.4856   -2.6362 C   0  0  0  0  0  0  0  0  0  0  0  0
   -3.1800    2.8568   -2.8374 C   0  0  0  0  0  0  0  0  0  0  0  0
   -3.7184    3.6363   -1.8563 N   0  0  0  0  0  0  0  0  0  0  0  0
   -3.9177    3.0513   -0.7053 C   0  0  0  0  0  0  0  0  0  0  0  0
   -3.6919    1.7617   -0.3836 N   0  0  0  0  0  0  0  0  0  0  0  0
   -3.2203    0.9760   -1.3297 C   0  0  0  0  0  0  0  0  0  0  0  0
   -2.9923   -0.3489   -1.0688 N   0  0  0  0  0  0  0  0  0  0  0  0
   -2.4888   -0.9136    0.0752 C   0  0  0  0  0  0  0  0  0  0  0  0
   -2.5629   -0.4338    1.3450 C   0  0  0  0  0  0  0  0  0  0  0  0
   -2.0403   -1.1703    2.4814 C   0  0  0  0  0  0  0  0  0  0  0  0
   -2.2112   -0.7721    3.6309 O   0  0  0  0  0  0  0  0  0  0  0  0
   -1.2979   -2.4539    2.1925 C   0  0  0  0  0  0  0  0  0  0  0  0
   -1.2164   -2.9167    0.9240 C   0  0  0  0  0  0  0  0  0  0  0  0
    0.2453   -0.8159   -1.0556 S   0  0  0  0  0  1  0  0  0  0  0  0
    0.8221    0.3775    0.1796 C   0  0  0  0  0  0  0  0  0  0  0  0
    2.1671   -0.0117    0.7898 C   0  0  2  0  0  0  0  0  0  0  0  0
    2.9101   -0.1161   -0.0215 H   0  0  0  0  0  0  0  0  0  0  0  0
    2.0269   -1.3110    1.4339 N   0  0  0  0  0  0  0  0  0  0  0  0
    3.0437   -2.1794    1.6114 C   0  0  0  0  0  0  0  0  0  0  0  0
    2.6282   -3.6152    1.8409 C   0  0  0  0  0  0  0  0  0  0  0  0
    4.2281   -1.8527    1.5598 O   0  0  0  0  0  0  0  0  0  0  0  0
    2.7084    1.0803    1.7343 C   0  0  0  0  0  0  0  0  0  0  0  0
    3.9914    0.8854    2.1209 N   0  0  0  0  0  0  0  0  0  0  0  0
    4.6585    1.8330    2.9694 C   0  0  0  0  0  0  0  0  0  0  0  0
    2.0665    2.0677    2.0547 O   0  0  0  0  0  0  0  0  0  0  0  0
   -1.8927   -2.2669   -0.2064 C   0  0  0  0  0  0  0  0  0  0  0  0
   -2.1582   -2.8462   -1.2534 O   0  0  0  0  0  0  0  0  0  0  0  0
   -0.7531   -3.2290    3.1560 O   0  0  0  0  0  0  0  0  0  0  0  0
   -0.5309   -2.8359    4.5100 C   0  0  0  0  0  0  0  0  0  0  0  0
    0.7467   -2.0547    4.6839 C   0  0  0  0  0  0  0  0  0  0  0  0
    1.9554   -2.7145    4.9100 C   0  0  0  0  0  0  0  0  0  0  0  0
    1.9598   -4.0542    5.0012 F   0  0  0  0  0  0  0  0  0  0  0  0
    3.1627   -2.0448    5.0442 C   0  0  0  0  0  0  0  0  0  0  0  0
    3.1703   -0.6560    4.9457 C   0  0  0  0  0  0  0  0  0  0  0  0
    1.9837    0.0385    4.7217 C   0  0  0  0  0  0  0  0  0  0  0  0
    0.7854   -0.6590    4.5915 C   0  0  0  0  0  0  0  0  0  0  0  0
    0.7696    1.4943   -2.6543 H   0  0  0  0  0  0  0  0  0  0  0  0
   -0.0896    3.0618   -2.6695 H   0  0  0  0  0  0  0  0  0  0  0  0
    1.7057    3.0292   -2.7609 H   0  0  0  0  0  0  0  0  0  0  0  0
    1.5397    3.9787   -5.4998 H   0  0  0  0  0  0  0  0  0  0  0  0
    0.0803    4.3708   -4.5529 H   0  0  0  0  0  0  0  0  0  0  0  0
    0.0052    2.4192   -6.8939 H   0  0  0  0  0  0  0  0  0  0  0  0
   -0.1581    4.1880   -7.1197 H   0  0  0  0  0  0  0  0  0  0  0  0
   -2.9464    4.5180   -4.2121 H   0  0  0  0  0  0  0  0  0  0  0  0
   -0.0160   -0.7795   -6.4221 H   0  0  0  0  0  0  0  0  0  0  0  0
   -1.3284   -1.3417   -5.3445 H   0  0  0  0  0  0  0  0  0  0  0  0
    0.0445   -0.4009   -4.6662 H   0  0  0  0  0  0  0  0  0  0  0  0
   -1.9939   -0.3069   -3.4638 H   0  0  0  0  0  0  0  0  0  0  0  0
   -4.3206    3.6705    0.1054 H   0  0  0  0  0  0  0  0  0  0  0  0
   -2.7730   -0.9503   -1.8599 H   0  0  0  0  0  0  0  0  0  0  0  0
   -3.0595    0.5094    1.5605 H   0  0  0  0  0  0  0  0  0  0  0  0
   -0.7259   -3.8689    0.7166 H   0  0  0  0  0  0  0  0  0  0  0  0
    0.0751    0.4652    0.9936 H   0  0  0  0  0  0  0  0  0  0  0  0
    0.9120    1.3878   -0.2449 H   0  0  0  0  0  0  0  0  0  0  0  0
    1.1017   -1.7194    1.3170 H   0  0  0  0  0  0  0  0  0  0  0  0
    2.6795   -4.1391    0.8738 H   0  0  0  0  0  0  0  0  0  0  0  0
    1.6056   -3.7037    2.2326 H   0  0  0  0  0  0  0  0  0  0  0  0
    3.3329   -4.0932    2.5319 H   0  0  0  0  0  0  0  0  0  0  0  0
    4.3969   -0.0344    1.9197 H   0  0  0  0  0  0  0  0  0  0  0  0
    4.6900    2.8307    2.5026 H   0  0  0  0  0  0  0  0  0  0  0  0
    5.6879    1.4950    3.1497 H   0  0  0  0  0  0  0  0  0  0  0  0
    4.1517    1.9544    3.9430 H   0  0  0  0  0  0  0  0  0  0  0  0
   -0.4546   -3.7889    5.0479 H   0  0  0  0  0  0  0  0  0  0  0  0
   -1.3809   -2.2612    4.8866 H   0  0  0  0  0  0  0  0  0  0  0  0
    4.0773   -2.6176    5.2037 H   0  0  0  0  0  0  0  0  0  0  0  0
    4.1162   -0.1178    5.0314 H   0  0  0  0  0  0  0  0  0  0  0  0
    1.9885    1.1234    4.6045 H   0  0  0  0  0  0  0  0  0  0  0  0
   -0.1481   -0.1255    4.4025 H   0  0  0  0  0  0  0  0  0  0  0  0
  1 50  1  0  0  0  0
  1 49  1  0  0  0  0
  1 48  1  0  0  0  0
  2  1  1  0  0  0  0
  3 52  1  0  0  0  0
  3  2  1  0  0  0  0
  4  5  1  0  0  0  0
  4  3  1  0  0  0  0
  5  6  1  0  0  0  0
  6  8  2  0  0  0  0
  6  7  1  0  0  0  0
  7 13  2  0  0  0  0
  8 11  1  0  0  0  0
  9 10  1  0  0  0  0
  9  8  1  0  0  0  0
 10 57  1  0  0  0  0
 10 58  1  0  0  0  0
 11 59  1  0  0  0  0
 11 12  2  0  0  0  0
 12 17  1  0  0  0  0
 13 12  1  0  0  0  0
 13 14  1  0  0  0  0
 14 15  2  0  0  0  0
 15 16  1  0  0  0  0
 15 60  1  0  0  0  0
 17 18  1  0  0  0  0
 17 16  2  0  0  0  0
 18 19  1  0  0  0  0
 19 20  2  0  0  0  0
 20 62  1  0  0  0  0
 20 21  1  0  0  0  0
 21 22  2  0  0  0  0
 23 21  1  0  0  0  0
 23 39  1  0  0  0  0
 24 23  2  0  0  0  0
 25 26  1  0  0  0  0
 26 27  1  0  0  0  0
 26 64  1  0  0  0  0
 27 28  1  6  0  0  0
 27 29  1  0  0  0  0
 27 33  1  0  0  0  0
 29 30  1  0  0  0  0
 30 31  1  0  0  0  0
 31 68  1  0  0  0  0
 31 69  1  0  0  0  0
 32 30  2  0  0  0  0
 33 36  2  0  0  0  0
 33 34  1  0  0  0  0
 34 35  1  0  0  0  0
 35 72  1  0  0  0  0
 35 73  1  0  0  0  0
 37 19  1  0  0  0  0
 37 24  1  0  0  0  0
 38 37  2  0  0  0  0
 39 40  1  0  0  0  0
 40 41  1  0  0  0  0
 40 75  1  0  0  0  0
 40 74  1  0  0  0  0
 41 42  1  0  0  0  0
 42 43  1  0  0  0  0
 42 44  2  0  0  0  0
 44 76  1  0  0  0  0
 45 77  1  0  0  0  0
 45 44  1  0  0  0  0
 46 45  2  0  0  0  0
 47 41  2  0  0  0  0
 47 46  1  0  0  0  0
 51  3  1  0  0  0  0
 53  4  1  0  0  0  0
 54  4  1  0  0  0  0
 55  7  1  0  0  0  0
 56 10  1  0  0  0  0
 61 18  1  0  0  0  0
 63 24  1  0  0  0  0
 65 26  1  0  0  0  0
 66 29  1  0  0  0  0
 67 31  1  0  0  0  0
 70 34  1  0  0  0  0
 71 35  1  0  0  0  0
 78 46  1  0  0  0  0
 79 47  1  0  0  0  0
M  END
