-1 1
 OpenBabel05192410563D

 60 62  0  0  1  0  0  0  0  0999 V2000
    3.8885   -3.3357    0.5001 C   0  0  0  0  0  0  0  0  0  0  0  0
    3.1335   -2.5159    0.9700 C   0  0  0  0  0  0  0  0  0  0  0  0
    2.2220   -1.5717    1.5356 C   0  0  0  0  0  0  0  0  0  0  0  0
    2.5979   -0.3370    1.8197 N   0  0  0  0  0  0  0  0  0  0  0  0
    1.5545    0.2834    2.4071 N   0  0  0  0  0  0  0  0  0  0  0  0
    1.4543    1.7392    2.2623 C   0  0  2  0  0  0  0  0  0  0  0  0
    2.4866    2.0848    2.1051 H   0  0  0  0  0  0  0  0  0  0  0  0
    0.8604    2.4503    3.4702 C   0  0  0  0  0  0  0  0  0  0  0  0
    0.6051    3.9076    3.0882 C   0  0  0  0  0  0  0  0  0  0  0  0
   -0.3146    3.9978    1.8753 C   0  0  0  0  0  0  0  0  0  0  0  0
    0.2756    3.3443    0.7179 N   0  0  0  0  0  0  0  0  0  0  0  0
    0.6402    1.9694    0.9806 C   0  0  0  0  0  0  0  0  0  0  0  0
   -0.5248    3.4839   -0.4798 C   0  0  0  0  0  0  0  0  0  0  0  0
   -1.5791    4.1273   -0.3888 O   0  0  0  0  0  0  0  0  0  0  0  0
   -0.0672    2.8295   -1.6555 C   0  0  0  0  0  3  0  0  0  0  0  0
   -0.9226    2.8435   -2.8344 C   0  0  0  0  0  0  0  0  0  0  0  0
   -2.0387    1.2476   -3.1765 S   0  0  0  0  0  0  0  0  0  0  0  0
   -2.2008    0.4903   -1.5321 C   0  0  0  0  0  0  0  0  0  0  0  0
   -1.2498   -0.6908   -1.2299 C   0  0  2  0  0  0  0  0  0  0  0  0
   -1.3834   -0.9603   -0.1681 H   0  0  0  0  0  0  0  0  0  0  0  0
    0.1011   -0.2495   -1.4879 N   0  0  0  0  0  0  0  0  0  0  0  0
    1.1805   -1.0495   -1.5532 C   0  0  0  0  0  0  0  0  0  0  0  0
    2.4946   -0.3329   -1.7825 C   0  0  0  0  0  0  0  0  0  0  0  0
    1.1288   -2.2697   -1.4248 O   0  0  0  0  0  0  0  0  0  0  0  0
   -1.6207   -1.9727   -1.9947 C   0  0  0  0  0  0  0  0  0  0  0  0
   -1.4233   -1.9047   -3.3305 N   0  0  0  0  0  0  0  0  0  0  0  0
   -1.7087   -2.9974   -4.2180 C   0  0  0  0  0  0  0  0  0  0  0  0
   -2.0960   -2.9444   -1.4267 O   0  0  0  0  0  0  0  0  0  0  0  0
    0.8540   -1.7720    1.9095 C   0  0  0  0  0  0  0  0  0  0  0  0
    0.4806   -0.5618    2.5037 C   0  0  0  0  0  0  0  0  0  0  0  0
   -0.7229   -0.2883    3.0264 N   0  0  0  0  0  0  0  0  0  0  0  0
   -1.5694   -1.2970    2.8933 C   0  0  0  0  0  0  0  0  0  0  0  0
   -1.3979   -2.4370    2.2223 N   0  0  0  0  0  0  0  0  0  0  0  0
   -0.2154   -2.6702    1.6384 C   0  0  0  0  0  0  0  0  0  0  0  0
   -0.1039   -3.6934    0.7685 N   0  0  0  0  0  0  0  0  0  0  0  0
    4.5493   -4.0598    0.0640 H   0  0  0  0  0  0  0  0  0  0  0  0
    1.5419    2.3642    4.3317 H   0  0  0  0  0  0  0  0  0  0  0  0
   -0.0883    1.9645    3.7423 H   0  0  0  0  0  0  0  0  0  0  0  0
    1.5605    4.4118    2.8590 H   0  0  0  0  0  0  0  0  0  0  0  0
    0.1481    4.4440    3.9348 H   0  0  0  0  0  0  0  0  0  0  0  0
   -0.5213    5.0420    1.6092 H   0  0  0  0  0  0  0  0  0  0  0  0
   -1.2984    3.5504    2.1297 H   0  0  0  0  0  0  0  0  0  0  0  0
    1.2384    1.5713    0.1543 H   0  0  0  0  0  0  0  0  0  0  0  0
   -0.2700    1.3376    1.0515 H   0  0  0  0  0  0  0  0  0  0  0  0
    0.9872    2.5544   -1.7498 H   0  0  0  0  0  0  0  0  0  0  0  0
   -0.3879    2.8954   -3.7929 H   0  0  0  0  0  0  0  0  0  0  0  0
   -1.6799    3.6338   -2.7709 H   0  0  0  0  0  0  0  0  0  0  0  0
   -3.2406    0.1629   -1.3971 H   0  0  0  0  0  0  0  0  0  0  0  0
   -2.0018    1.2883   -0.7989 H   0  0  0  0  0  0  0  0  0  0  0  0
    0.2044    0.7743   -1.5624 H   0  0  0  0  0  0  0  0  0  0  0  0
    2.9617   -0.1344   -0.8051 H   0  0  0  0  0  0  0  0  0  0  0  0
    2.3651    0.6228   -2.3091 H   0  0  0  0  0  0  0  0  0  0  0  0
    3.1620   -0.9931   -2.3500 H   0  0  0  0  0  0  0  0  0  0  0  0
   -1.1467   -0.9991   -3.7065 H   0  0  0  0  0  0  0  0  0  0  0  0
   -0.8054   -3.3204   -4.7612 H   0  0  0  0  0  0  0  0  0  0  0  0
   -2.4838   -2.7296   -4.9546 H   0  0  0  0  0  0  0  0  0  0  0  0
   -2.0740   -3.8357   -3.6110 H   0  0  0  0  0  0  0  0  0  0  0  0
   -2.5533   -1.1656    3.3598 H   0  0  0  0  0  0  0  0  0  0  0  0
   -1.0088   -3.9705    0.3910 H   0  0  0  0  0  0  0  0  0  0  0  0
    0.5760   -3.5250    0.0233 H   0  0  0  0  0  0  0  0  0  0  0  0
  1  2  3  0  0  0  0
  2  3  1  0  0  0  0
  3  4  2  0  0  0  0
  3 29  1  0  0  0  0
  4  5  1  0  0  0  0
  5 30  1  0  0  0  0
  6  7  1  6  0  0  0
  6  5  1  0  0  0  0
  6  8  1  0  0  0  0
  8 38  1  0  0  0  0
  8 37  1  0  0  0  0
  9  8  1  0  0  0  0
  9 40  1  0  0  0  0
 10 42  1  0  0  0  0
 10  9  1  0  0  0  0
 11 12  1  0  0  0  0
 11 10  1  0  0  0  0
 12 44  1  0  0  0  0
 12  6  1  0  0  0  0
 13 14  2  0  0  0  0
 13 11  1  0  0  0  0
 15 13  1  0  0  0  0
 16 47  1  0  0  0  0
 16 15  1  0  0  0  0
 17 16  1  0  0  0  0
 17 18  1  0  0  0  0
 18 48  1  0  0  0  0
 18 19  1  0  0  0  0
 18 49  1  0  0  0  0
 19 20  1  1  0  0  0
 21 19  1  0  0  0  0
 22 21  1  0  0  0  0
 22 24  2  0  0  0  0
 23 22  1  0  0  0  0
 23 51  1  0  0  0  0
 25 28  2  0  0  0  0
 25 19  1  0  0  0  0
 26 25  1  0  0  0  0
 27 57  1  0  0  0  0
 27 26  1  0  0  0  0
 29 30  2  0  0  0  0
 30 31  1  0  0  0  0
 32 31  2  0  0  0  0
 32 58  1  0  0  0  0
 33 32  1  0  0  0  0
 34 29  1  0  0  0  0
 34 33  2  0  0  0  0
 35 34  1  0  0  0  0
 36  1  1  0  0  0  0
 39  9  1  0  0  0  0
 41 10  1  0  0  0  0
 43 12  1  0  0  0  0
 45 15  1  0  0  0  0
 46 16  1  0  0  0  0
 50 21  1  0  0  0  0
 52 23  1  0  0  0  0
 53 23  1  0  0  0  0
 54 26  1  0  0  0  0
 55 27  1  0  0  0  0
 56 27  1  0  0  0  0
 59 35  1  0  0  0  0
 60 35  1  0  0  0  0
M  END
