69
-1 1
O         0.495756    0.539392    1.014125
C         0.550367   -0.361195    1.887214
N        -0.659595   -1.125905    2.178350
C        -1.468112   -0.651864    3.280945
C        -2.452384    0.445122    2.860819
C        -3.341121   -0.033314    1.709190
C        -2.545031   -0.616153    0.538316
H        -3.216019   -1.214753   -0.098814
C        -1.443589   -1.571197    1.049422
N        -2.005397    0.427417   -0.330356
N        -1.896659    1.704749    0.064260
C        -1.140528    2.335565   -0.805039
C        -0.675340    3.711249   -0.547066
C        -0.843897    4.753577   -1.461250
C        -0.354318    6.030725   -1.183701
C         0.308651    6.277107    0.021219
O         0.798549    7.501933    0.341785
C         0.493147    5.235446    0.937076
C         0.011675    3.964360    0.651102
C        -1.304722    0.209483   -1.469330
C        -0.731067    1.435705   -1.833385
C         0.119388    1.401464   -2.958449
N         0.791588    2.500758   -3.402079
N         0.275410    0.261579   -3.629339
C        -0.362529   -0.832390   -3.184901
N        -1.153608   -0.947182   -2.134577
C         1.699794   -0.755391    2.567319
C         1.832430   -1.892621    3.505251
S         2.585616   -3.490858    2.833103
C         1.212016   -4.090320    1.802091
C         1.345393   -3.889948    0.290005
H         2.154980   -4.525468   -0.114170
N         1.661909   -2.505517   -0.007007
C         2.175149   -2.050165   -1.165989
C         2.592951   -0.599200   -1.146803
O         2.296059   -2.755342   -2.171924
C         0.023264   -4.359662   -0.376443
N        -0.009926   -4.209480   -1.716353
C        -1.223245   -4.399986   -2.467609
O        -0.893233   -4.839351    0.274838
H        -0.796526   -0.285701    4.072289
H        -2.035629   -1.506572    3.705198
H        -1.888401    1.330806    2.535588
H        -3.084452    0.738079    3.716819
H        -3.994966    0.777299    1.353955
H        -3.995443   -0.844289    2.074919
H        -0.777024   -1.820878    0.215413
H        -1.954159   -2.512721    1.326336
H        -1.368116    4.567208   -2.402129
H        -0.498153    6.842426   -1.904373
H         0.603351    8.112966   -0.373804
H         1.032977    5.439929    1.863498
H         0.186650    3.119449    1.323697
H         0.930508    3.263732   -2.751949
H         1.535388    2.310955   -4.061126
H        -0.185130   -1.745960   -3.763504
H         2.592721   -0.152570    2.373748
H         0.869992   -2.204340    3.933393
H         2.516079   -1.672601    4.341071
H         0.301239   -3.579945    2.145033
H         1.069144   -5.159626    2.000243
H         1.671447   -1.859137    0.796863
H         3.610376   -0.525794   -0.731228
H         1.917846    0.002698   -0.511608
H         2.600617   -0.229059   -2.179640
H         0.802230   -3.753230   -2.147046
H        -1.856589   -5.129030   -1.944765
H        -0.990425   -4.781523   -3.473307
H        -1.783647   -3.453420   -2.560693
