69
-1 1
O         0.825307   -0.064442   -0.655981
C         0.630172   -0.265473    0.539491
N        -0.408708   -1.032400    0.977143
C        -0.944849   -1.091468    2.329964
C        -2.193971   -0.212173    2.440369
C        -3.203816   -0.488044    1.317655
C        -2.574557   -0.625573   -0.073546
H        -3.300802   -1.070397   -0.769659
C        -1.344502   -1.538963   -0.006593
N        -2.206368    0.656441   -0.666182
N        -1.811670    1.711105    0.066378
C        -1.277030    2.598150   -0.748295
C        -0.759430    3.872783   -0.220290
C        -0.901263    5.071509   -0.926595
C        -0.413475    6.271763   -0.410416
C         0.215712    6.293562    0.836228
O         0.707017    7.429478    1.385830
C         0.350352    5.102995    1.559520
C        -0.131134    3.912169    1.034874
C        -1.912892    0.838400   -1.976410
C        -1.301569    2.096603   -2.089819
C        -0.804540    2.399418   -3.380359
N        -0.092346    3.527942   -3.656195
N        -1.036516    1.558462   -4.386244
C        -1.692124    0.415862   -4.132760
N        -2.139921   -0.025971   -2.973957
C         1.563571    0.384795    1.512734
C         2.177669   -0.161661    2.564399
S         2.924299   -3.653217    3.468982
C         1.351673   -4.213406    2.725190
C         1.390294   -4.346446    1.190363
H         1.938591   -5.267796    0.915287
N         2.111505   -3.201340    0.653177
C         2.677324   -3.123393   -0.566866
C         3.610646   -1.948750   -0.756066
O         2.434296   -3.897876   -1.495192
C        -0.035003   -4.483135    0.611807
N        -0.079847   -4.645559   -0.729256
C        -1.312685   -4.761894   -1.458793
O        -1.039483   -4.471594    1.315880
H        -0.188448   -0.777539    3.054092
H        -1.181935   -2.148244    2.537657
H        -1.889333    0.842702    2.400084
H        -2.674986   -0.385799    3.416186
H        -3.984951    0.287801    1.301396
H        -3.706377   -1.449176    1.516238
H        -0.848291   -1.606608   -0.980835
H        -1.668553   -2.541539    0.307337
H        -1.411839    5.074116   -1.892589
H        -0.537586    7.200049   -0.976934
H         0.549547    8.165231    0.787675
H         0.845064    5.131149    2.531824
H        -0.018180    2.982389    1.595910
H         0.386331    3.984298   -2.890623
H         0.382269    3.517960   -4.550304
H        -1.857239   -0.233490   -5.000423
H         1.842739    1.389297    1.176153
H         2.037300   -1.194441    2.915512
H         2.931130    0.415968    3.108455
H         0.542138   -3.511616    2.975523
H         1.040524   -5.187002    3.130571
H         2.629856   -2.754335    1.429516
H         4.180148   -1.728019    0.158234
H         2.999518   -1.066814   -1.005200
H         4.292170   -2.165689   -1.587666
H         0.813777   -4.544642   -1.229938
H        -2.126546   -4.935966   -0.742297
H        -1.273243   -5.608035   -2.163560
H        -1.542769   -3.848404   -2.034873
