79
-1 1
C        -0.058240    3.482535    2.118371
N        -0.684379    4.317989    1.113174
C        -1.165759    3.611918   -0.058617
C        -0.155646    2.755209   -0.837737
S         1.380775    3.834534   -1.114494
C         2.440663    2.608341   -1.930726
C         3.251870    1.712640   -0.973995
H         2.560381    1.201228   -0.297940
N         4.174465    2.468901   -0.166385
C         4.079244    2.571004    1.180752
C         5.128656    3.459169    1.826533
O         3.210336    2.037023    1.849537
C         4.030998    0.685213   -1.796152
N         3.386157   -0.482229   -1.966585
C         3.927496   -1.542546   -2.772177
O         5.127293    0.967301   -2.272391
C         0.203967    1.415852   -0.324830
C         0.195311    0.257134   -1.072158
N        -0.658734    0.187430   -2.229171
C        -0.246563   -0.712240   -3.284629
C        -0.864976   -2.103032   -3.148049
C        -2.386713   -1.990376   -3.115503
C        -2.844949   -1.052113   -1.991546
H        -3.923790   -0.849352   -2.104244
C        -2.090343    0.297126   -2.075688
N        -2.665314   -1.687230   -0.681509
N        -1.951800   -1.080969    0.276344
C        -1.889271   -1.870017    1.323632
C        -1.093937   -1.454087    2.496572
C         0.157575   -0.861318    2.273337
C         0.897645   -0.370714    3.347126
C         0.413669   -0.502217    4.650347
C        -0.816877   -1.118846    4.880368
C        -1.576324   -1.583795    3.805933
C        -3.113996   -2.896848   -0.256272
C        -2.625092   -3.068002    1.052497
C        -2.923155   -4.312314    1.655567
N        -2.475455   -4.650274    2.889730
N        -3.680949   -5.195425    1.001883
C        -4.116540   -4.874029   -0.225393
N        -3.880448   -3.778761   -0.921483
O         0.907695   -0.776993   -0.828842
C        -1.715161    5.156398    1.665935
H         0.886371    3.062389    1.750091
H        -0.708153    2.643383    2.451342
H         0.182588    4.100228    2.997747
H        -1.574023    4.378259   -0.741445
H        -2.009362    2.928259    0.202107
H        -0.582704    2.627696   -1.844054
H         3.134173    3.162884   -2.582984
H         1.815842    1.970004   -2.573275
H         5.002069    2.806029   -0.643073
H         6.026320    3.595374    1.206526
H         5.408130    3.029608    2.797003
H         4.675204    4.445031    2.008936
H         2.471472   -0.631309   -1.478541
H         3.182304   -1.900223   -3.501204
H         4.237595   -2.404538   -2.156981
H         4.807677   -1.165013   -3.310165
H         0.759880    1.362520    0.610476
H         0.848946   -0.774310   -3.274146
H        -0.547035   -0.276820   -4.260448
H        -0.486910   -2.541582   -2.210782
H        -0.550627   -2.754524   -3.980550
H        -2.876883   -2.967809   -3.005466
H        -2.744734   -1.555386   -4.066230
H        -2.305789    0.902028   -1.186970
H        -2.523911    0.816982   -2.954001
H         0.538969   -0.800290    1.246484
H         1.847043    0.134406    3.149766
H         0.995395   -0.115577    5.491141
H        -1.201925   -1.213969    5.899124
H        -2.564525   -2.019465    3.981446
H        -1.745574   -4.101912    3.324589
H        -2.609413   -5.609745    3.176225
H        -4.744672   -5.630840   -0.711352
H        -1.311503    5.764055    2.491641
H        -2.586190    4.582450    2.065667
H        -2.100441    5.845954    0.897327
