-1 1
 OpenBabel05232413493D

 79 81  0  0  1  0  0  0  0  0999 V2000
    1.8556    3.7914    2.4847 C   0  0  0  0  0  0  0  0  0  0  0  0
    0.6217    4.2823    1.9050 N   0  0  0  0  0  0  0  0  0  0  0  0
   -0.3297    3.2227    1.6324 C   0  0  0  0  0  0  0  0  0  0  0  0
    0.1361    2.2236    0.6135 C   0  0  0  0  0  0  0  0  0  0  0  0
    0.6329    2.1237   -4.3469 S   0  0  0  0  0  1  0  0  0  0  0  0
    2.3159    1.5140   -3.9638 C   0  0  0  0  0  0  0  0  0  0  0  0
    2.7241    1.7434   -2.5002 C   0  0  2  0  0  0  0  0  0  0  0  0
    2.0209    1.1974   -1.8535 H   0  0  0  0  0  0  0  0  0  0  0  0
    2.6242    3.1541   -2.2115 N   0  0  0  0  0  0  0  0  0  0  0  0
    2.9793    3.6770   -1.0245 C   0  0  0  0  0  0  0  0  0  0  0  0
    2.6071    5.1292   -0.8037 C   0  0  0  0  0  0  0  0  0  0  0  0
    3.5440    3.0232   -0.1534 O   0  0  0  0  0  0  0  0  0  0  0  0
    4.1346    1.2067   -2.2482 C   0  0  0  0  0  0  0  0  0  0  0  0
    4.1685    0.1053   -1.4456 N   0  0  0  0  0  0  0  0  0  0  0  0
    5.4246   -0.4767   -1.0582 C   0  0  0  0  0  0  0  0  0  0  0  0
    5.1219    1.6607   -2.7975 O   0  0  0  0  0  0  0  0  0  0  0  0
    0.1986    0.9130    0.8534 C   0  0  0  0  0  0  0  0  0  0  0  0
    0.6991   -0.1069   -0.1179 C   0  0  0  0  0  0  0  0  0  0  0  0
    0.0918   -0.2165   -1.3228 N   0  0  0  0  0  0  0  0  0  0  0  0
    0.6388   -1.1098   -2.3352 C   0  0  0  0  0  0  0  0  0  0  0  0
   -0.3007   -2.2869   -2.5810 C   0  0  0  0  0  0  0  0  0  0  0  0
   -1.6780   -1.7690   -2.9896 C   0  0  0  0  0  0  0  0  0  0  0  0
   -2.2245   -0.7866   -1.9469 C   0  0  2  0  0  0  0  0  0  0  0  0
   -3.1483   -0.3272   -2.3291 H   0  0  0  0  0  0  0  0  0  0  0  0
   -1.2134    0.3274   -1.6597 C   0  0  0  0  0  0  0  0  0  0  0  0
   -2.6005   -1.5008   -0.7173 N   0  0  0  0  0  0  0  0  0  0  0  0
   -1.8840   -1.4088    0.4110 N   0  0  0  0  0  0  0  0  0  0  0  0
   -2.3936   -2.2325    1.3023 C   0  0  0  0  0  0  0  0  0  0  0  0
   -1.7817   -2.3257    2.6418 C   0  0  0  0  0  0  0  0  0  0  0  0
   -0.3902   -2.2045    2.7804 C   0  0  0  0  0  0  0  0  0  0  0  0
    0.1936   -2.2614    4.0430 C   0  0  0  0  0  0  0  0  0  0  0  0
   -0.5937   -2.4476    5.1804 C   0  0  0  0  0  0  0  0  0  0  0  0
   -1.9768   -2.5611    5.0509 C   0  0  0  0  0  0  0  0  0  0  0  0
   -2.5686   -2.4921    3.7900 C   0  0  0  0  0  0  0  0  0  0  0  0
   -3.6054   -2.4002   -0.5773 C   0  0  0  0  0  0  0  0  0  0  0  0
   -3.5130   -2.9193    0.7280 C   0  0  0  0  0  0  0  0  0  0  0  0
   -4.4314   -3.9590    1.0234 C   0  0  1  0  0  3  0  0  0  0  0  0
   -4.4324   -4.6345    2.1998 N   0  0  0  0  0  0  0  0  0  0  0  0
   -5.3461   -4.3020    0.1168 N   0  0  0  0  0  0  0  0  0  0  0  0
   -5.3452   -3.6745   -1.0692 C   0  0  0  0  0  0  0  0  0  0  0  0
   -4.5162   -2.7444   -1.5000 N   0  0  0  0  0  2  0  0  0  0  0  0
    1.6764   -0.7887    0.1966 O   0  0  0  0  0  0  0  0  0  0  0  0
    0.0343    5.3439    2.6825 C   0  0  0  0  0  0  0  0  0  0  0  0
    2.3518    3.0902    1.7997 H   0  0  0  0  0  0  0  0  0  0  0  0
    1.6900    3.2970    3.4700 H   0  0  0  0  0  0  0  0  0  0  0  0
    2.5494    4.6323    2.6356 H   0  0  0  0  0  0  0  0  0  0  0  0
   -1.2505    3.6951    1.2459 H   0  0  0  0  0  0  0  0  0  0  0  0
   -0.6190    2.6836    2.5662 H   0  0  0  0  0  0  0  0  0  0  0  0
    0.3964    2.6128   -0.3794 H   0  0  0  0  0  0  0  0  0  0  0  0
    3.0678    2.0165   -4.5934 H   0  0  0  0  0  0  0  0  0  0  0  0
    2.4112    0.4341   -4.1646 H   0  0  0  0  0  0  0  0  0  0  0  0
    1.9820    3.6421   -2.8390 H   0  0  0  0  0  0  0  0  0  0  0  0
    1.7831    5.1516   -0.0714 H   0  0  0  0  0  0  0  0  0  0  0  0
    2.2983    5.6408   -1.7256 H   0  0  0  0  0  0  0  0  0  0  0  0
    3.4682    5.6489   -0.3615 H   0  0  0  0  0  0  0  0  0  0  0  0
    3.3657   -0.0778   -0.8469 H   0  0  0  0  0  0  0  0  0  0  0  0
    5.2838   -1.5350   -0.7937 H   0  0  0  0  0  0  0  0  0  0  0  0
    5.8783    0.0448   -0.1961 H   0  0  0  0  0  0  0  0  0  0  0  0
    6.1272   -0.4014   -1.8992 H   0  0  0  0  0  0  0  0  0  0  0  0
   -0.0170    0.5176    1.8514 H   0  0  0  0  0  0  0  0  0  0  0  0
    1.6314   -1.4345   -2.0054 H   0  0  0  0  0  0  0  0  0  0  0  0
    0.7384   -0.5188   -3.2611 H   0  0  0  0  0  0  0  0  0  0  0  0
   -0.3741   -2.9038   -1.6688 H   0  0  0  0  0  0  0  0  0  0  0  0
    0.1134   -2.9283   -3.3741 H   0  0  0  0  0  0  0  0  0  0  0  0
   -2.4015   -2.5830   -3.1454 H   0  0  0  0  0  0  0  0  0  0  0  0
   -1.5915   -1.2166   -3.9396 H   0  0  0  0  0  0  0  0  0  0  0  0
   -1.5739    0.9664   -0.8491 H   0  0  0  0  0  0  0  0  0  0  0  0
   -1.0924    0.9432   -2.5712 H   0  0  0  0  0  0  0  0  0  0  0  0
    0.2344   -2.0529    1.8958 H   0  0  0  0  0  0  0  0  0  0  0  0
    1.2770   -2.1582    4.1345 H   0  0  0  0  0  0  0  0  0  0  0  0
   -0.1293   -2.4946    6.1681 H   0  0  0  0  0  0  0  0  0  0  0  0
   -2.6032   -2.6848    5.9375 H   0  0  0  0  0  0  0  0  0  0  0  0
   -3.6567   -2.5386    3.6974 H   0  0  0  0  0  0  0  0  0  0  0  0
   -3.6288   -4.5821    2.8099 H   0  0  0  0  0  0  0  0  0  0  0  0
   -5.0265   -5.4512    2.2460 H   0  0  0  0  0  0  0  0  0  0  0  0
   -6.1278   -3.9919   -1.7683 H   0  0  0  0  0  0  0  0  0  0  0  0
    0.7555    6.1671    2.8016 H   0  0  0  0  0  0  0  0  0  0  0  0
   -0.2775    5.0181    3.7032 H   0  0  0  0  0  0  0  0  0  0  0  0
   -0.8557    5.7457    2.1730 H   0  0  0  0  0  0  0  0  0  0  0  0
  1 46  1  0  0  0  0
  1 45  1  0  0  0  0
  2  1  1  0  0  0  0
  2 43  1  0  0  0  0
  3  2  1  0  0  0  0
  3 48  1  0  0  0  0
  4 17  2  0  0  0  0
  4  3  1  0  0  0  0
  5  6  1  0  0  0  0
  6  7  1  0  0  0  0
  7 13  1  0  0  0  0
  7  9  1  0  0  0  0
  7  8  1  1  0  0  0
  9 10  1  0  0  0  0
 10 11  1  0  0  0  0
 10 12  2  0  0  0  0
 11 55  1  0  0  0  0
 11 53  1  0  0  0  0
 13 14  1  0  0  0  0
 14 15  1  0  0  0  0
 14 56  1  0  0  0  0
 15 57  1  0  0  0  0
 15 58  1  0  0  0  0
 16 13  2  0  0  0  0
 17 60  1  0  0  0  0
 18 42  2  0  0  0  0
 18 17  1  0  0  0  0
 19 18  1  0  0  0  0
 20 61  1  0  0  0  0
 20 19  1  0  0  0  0
 21 20  1  0  0  0  0
 21 63  1  0  0  0  0
 22 21  1  0  0  0  0
 22 23  1  0  0  0  0
 23 24  1  6  0  0  0
 23 25  1  0  0  0  0
 23 26  1  0  0  0  0
 25 19  1  0  0  0  0
 25 67  1  0  0  0  0
 26 35  1  0  0  0  0
 26 27  1  0  0  0  0
 27 28  2  0  0  0  0
 28 29  1  0  0  0  0
 29 30  2  0  0  0  0
 29 34  1  0  0  0  0
 30 31  1  0  0  0  0
 31 70  1  0  0  0  0
 31 32  2  0  0  0  0
 32 71  1  0  0  0  0
 33 32  1  0  0  0  0
 33 72  1  0  0  0  0
 34 33  2  0  0  0  0
 35 36  2  0  0  0  0
 36 37  1  0  0  0  0
 36 28  1  0  0  0  0
 37 38  1  1  0  0  0
 38 75  1  0  0  0  0
 38 74  1  0  0  0  0
 39 37  1  0  0  0  0
 40 39  2  0  0  0  0
 41 40  1  0  0  0  0
 41 35  1  0  0  0  0
 43 77  1  0  0  0  0
 43 78  1  0  0  0  0
 44  1  1  0  0  0  0
 47  3  1  0  0  0  0
 49  4  1  0  0  0  0
 50  6  1  0  0  0  0
 51  6  1  0  0  0  0
 52  9  1  0  0  0  0
 54 11  1  0  0  0  0
 59 15  1  0  0  0  0
 62 20  1  0  0  0  0
 64 21  1  0  0  0  0
 65 22  1  0  0  0  0
 66 22  1  0  0  0  0
 68 25  1  0  0  0  0
 69 30  1  0  0  0  0
 73 34  1  0  0  0  0
 76 40  1  0  0  0  0
 79 43  1  0  0  0  0
M  END
