73
-1 1
O         3.104211   13.402520    2.764193
C         2.965414   12.779304    1.697919
N         1.710688   12.921702    1.023044
C         0.673182   13.662090    1.709086
C         0.690846   15.149436    1.348716
C         0.650131   15.356860   -0.170566
C         1.631535   14.465445   -0.938910
H         1.370172   14.450600   -2.007908
C         1.592841   13.010004   -0.408408
N         3.004637   14.959476   -0.894326
N         3.545625   15.298124    0.288135
C         4.854843   15.202210    0.177587
C         5.681855   15.312685    1.333470
C         6.267154   15.237369    2.391816
C         6.745776   14.993487    3.749622
C         6.421220   16.121609    4.748458
C         6.532649   15.417859    6.099355
C         5.838305   14.067962    5.859052
C         6.072296   13.729290    4.368133
C         3.972438   14.655618   -1.803407
C         5.200000   14.804364   -1.151145
C         6.343474   14.452807   -1.899217
N         7.587976   14.491784   -1.364605
N         6.201812   14.081707   -3.172725
C         4.964108   14.014069   -3.677599
N         3.814344   14.273179   -3.077970
C         3.956640   11.912935    1.155676
C         3.739692   10.795856    0.295798
S         4.288540   11.001837   -1.716114
C         3.433400    9.537185   -2.367110
C         1.914470    9.711959   -2.583144
H         1.505784   10.219984   -1.692642
N         1.246133    8.442786   -2.754766
C         0.991410    7.591333   -1.735896
C         0.177098    6.362634   -2.109707
O         1.378642    7.770109   -0.594395
C         1.547825   10.541908   -3.825259
N         2.009826   11.801272   -3.862364
C         1.747394   12.656314   -4.992784
O         0.850698   10.062998   -4.715805
H         0.825984   13.540108    2.787667
H        -0.307332   13.220398    1.437188
H         1.614486   15.575874    1.760416
H        -0.168944   15.663747    1.811519
H         0.823505   16.412948   -0.433230
H        -0.357134   15.097299   -0.542801
H         2.389687   12.442901   -0.903374
H         0.627714   12.571426   -0.732507
H         7.841950   14.858979    3.734409
H         5.386275   16.461282    4.580533
H         7.085074   16.992684    4.638071
H         6.088204   15.994172    6.925446
H         7.597871   15.262949    6.345751
H         4.758041   14.168413    6.045190
H         6.207087   13.284412    6.538219
H         5.119062   13.522557    3.851701
H         6.717323   12.848904    4.232185
H         7.673720   14.539392   -0.357081
H         8.314864   14.021341   -1.886398
H         4.900113   13.692928   -4.724319
H         4.928659   12.002003    1.647915
H         2.696809   10.476811    0.169128
H         4.376374    9.925132    0.492006
H         3.555986    8.724110   -1.635104
H         3.907840    9.215520   -3.307605
H         0.799702    8.343177   -3.663364
H         0.740802    5.467343   -1.812273
H        -0.064668    6.301700   -3.179825
H        -0.755021    6.371271   -1.526748
H         2.700320   12.093452   -3.163961
H         2.111113   13.660701   -4.743806
H         0.668798   12.688593   -5.208619
H         2.254361   12.298261   -5.905298
