-1 1
 OpenBabel05192410563D

 73 76  0  0  1  0  0  0  0  0999 V2000
   -0.3482    0.7130    3.0850 O   0  0  0  0  0  0  0  0  0  0  0  0
   -0.5217    0.0666    2.0325 C   0  0  0  0  0  0  0  0  0  0  0  0
   -1.8061    0.2241    1.3904 N   0  0  0  0  0  0  0  0  0  0  0  0
   -2.8063    0.9802    2.1130 C   0  0  0  0  0  0  0  0  0  0  0  0
   -2.7553    2.4744    1.7844 C   0  0  0  0  0  0  0  0  0  0  0  0
   -2.8177    2.7196    0.2714 C   0  0  0  0  0  0  0  0  0  0  0  0
   -1.8825    1.8155   -0.5387 C   0  0  2  0  0  0  0  0  0  0  0  0
   -2.1706    1.8314   -1.6012 H   0  0  0  0  0  0  0  0  0  0  0  0
   -1.9554    0.3513   -0.0341 C   0  0  0  0  0  0  0  0  0  0  0  0
   -0.4940    2.2665   -0.5163 N   0  0  0  0  0  0  0  0  0  0  0  0
    0.0675    2.6249    0.6507 N   0  0  0  0  0  0  0  0  0  0  0  0
    1.3712    2.4787    0.5346 C   0  0  0  0  0  0  0  0  0  0  0  0
    2.2124    2.5864    1.6802 C   0  0  0  0  0  0  0  0  0  0  0  0
    2.8067    2.5019    2.7328 C   0  0  0  0  0  0  0  0  0  0  0  0
    3.2825    2.2398    4.0883 C   0  0  0  0  0  0  0  0  0  0  0  0
    2.9623    3.3589    5.0987 C   0  0  0  0  0  0  0  0  0  0  0  0
    3.0596    2.6385    6.4419 C   0  0  0  0  0  0  0  0  0  0  0  0
    2.3540    1.2983    6.1816 C   0  0  0  0  0  0  0  0  0  0  0  0
    2.5958    0.9738    4.6889 C   0  0  0  0  0  0  0  0  0  0  0  0
    0.4553    1.9017   -1.4218 C   0  0  0  0  0  0  0  0  0  0  0  0
    1.6923    2.0294   -0.7838 C   0  0  0  0  0  0  0  0  0  0  0  0
    2.8163    1.6095   -1.5247 C   0  0  2  0  0  3  0  0  0  0  0  0
    4.0637    1.6144   -0.9959 N   0  0  0  0  0  0  0  0  0  0  0  0
    2.6532    1.2036   -2.7859 N   0  0  0  0  0  0  0  0  0  0  0  0
    1.4106    1.1644   -3.2805 C   0  0  0  0  0  0  0  0  0  0  0  0
    0.2742    1.4803   -2.6815 N   0  0  0  0  0  2  0  0  0  0  0  0
    0.4245   -0.8142    1.4664 C   0  0  0  0  0  3  0  0  0  0  0  0
    0.1358   -1.9479    0.6006 C   0  0  0  0  0  0  0  0  0  0  0  0
    0.7333   -1.7617   -1.2540 S   0  0  0  0  0  0  0  0  0  0  0  0
   -0.0411   -3.2341   -1.9861 C   0  0  0  0  0  0  0  0  0  0  0  0
   -1.5580   -3.1113   -2.2446 C   0  0  2  0  0  0  0  0  0  0  0  0
   -2.0131   -2.6368   -1.3576 H   0  0  0  0  0  0  0  0  0  0  0  0
   -2.1703   -4.4008   -2.4642 N   0  0  0  0  0  0  0  0  0  0  0  0
   -2.3996   -5.2971   -1.4775 C   0  0  0  0  0  0  0  0  0  0  0  0
   -3.1603   -6.5433   -1.9021 C   0  0  0  0  0  0  0  0  0  0  0  0
   -2.0307   -5.1413   -0.3269 O   0  0  0  0  0  0  0  0  0  0  0  0
   -1.9178   -2.2702   -3.4822 C   0  0  0  0  0  0  0  0  0  0  0  0
   -1.5019   -0.9947   -3.4869 N   0  0  0  0  0  0  0  0  0  0  0  0
   -1.7790   -0.1267   -4.6045 C   0  0  0  0  0  0  0  0  0  0  0  0
   -2.5698   -2.7579   -4.4013 O   0  0  0  0  0  0  0  0  0  0  0  0
   -2.6316    0.8340    3.1854 H   0  0  0  0  0  0  0  0  0  0  0  0
   -3.8058    0.5717    1.8567 H   0  0  0  0  0  0  0  0  0  0  0  0
   -1.8121    2.8630    2.1887 H   0  0  0  0  0  0  0  0  0  0  0  0
   -3.5918    3.0024    2.2742 H   0  0  0  0  0  0  0  0  0  0  0  0
   -2.6143    3.7756    0.0306 H   0  0  0  0  0  0  0  0  0  0  0  0
   -3.8399    2.5024   -0.0874 H   0  0  0  0  0  0  0  0  0  0  0  0
   -1.1910   -0.2304   -0.5609 H   0  0  0  0  0  0  0  0  0  0  0  0
   -2.9419   -0.0488   -0.3453 H   0  0  0  0  0  0  0  0  0  0  0  0
    4.3778    2.0976    4.0748 H   0  0  0  0  0  0  0  0  0  0  0  0
    1.9312    3.7091    4.9290 H   0  0  0  0  0  0  0  0  0  0  0  0
    3.6342    4.2255    5.0024 H   0  0  0  0  0  0  0  0  0  0  0  0
    2.6159    3.2095    7.2722 H   0  0  0  0  0  0  0  0  0  0  0  0
    4.1220    2.4706    6.6925 H   0  0  0  0  0  0  0  0  0  0  0  0
    1.2732    1.4075    6.3599 H   0  0  0  0  0  0  0  0  0  0  0  0
    2.7097    0.5038    6.8552 H   0  0  0  0  0  0  0  0  0  0  0  0
    1.6438    0.7809    4.1634 H   0  0  0  0  0  0  0  0  0  0  0  0
    3.2358    0.0904    4.5481 H   0  0  0  0  0  0  0  0  0  0  0  0
    4.1536    1.6861    0.0101 H   0  0  0  0  0  0  0  0  0  0  0  0
    4.7680    1.0972   -1.5043 H   0  0  0  0  0  0  0  0  0  0  0  0
    1.3275    0.8130   -4.3163 H   0  0  0  0  0  0  0  0  0  0  0  0
    1.3980   -0.7944    1.9638 H   0  0  0  0  0  0  0  0  0  0  0  0
   -0.9361   -2.1786    0.5131 H   0  0  0  0  0  0  0  0  0  0  0  0
    0.6603   -2.8716    0.8871 H   0  0  0  0  0  0  0  0  0  0  0  0
    0.0992   -4.0688   -1.2834 H   0  0  0  0  0  0  0  0  0  0  0  0
    0.4817   -3.4866   -2.9216 H   0  0  0  0  0  0  0  0  0  0  0  0
   -2.5952   -4.4913   -3.3842 H   0  0  0  0  0  0  0  0  0  0  0  0
   -2.5729   -7.4257   -1.6126 H   0  0  0  0  0  0  0  0  0  0  0  0
   -3.3744   -6.5848   -2.9789 H   0  0  0  0  0  0  0  0  0  0  0  0
   -4.1061   -6.5817   -1.3427 H   0  0  0  0  0  0  0  0  0  0  0  0
   -0.8645   -0.6731   -2.7543 H   0  0  0  0  0  0  0  0  0  0  0  0
   -1.4253    0.8777   -4.3416 H   0  0  0  0  0  0  0  0  0  0  0  0
   -2.8586   -0.1022   -4.8176 H   0  0  0  0  0  0  0  0  0  0  0  0
   -1.2706   -0.4678   -5.5221 H   0  0  0  0  0  0  0  0  0  0  0  0
  2  1  2  0  0  0  0
  3  2  1  0  0  0  0
  3  4  1  0  0  0  0
  4 41  1  0  0  0  0
  5  4  1  0  0  0  0
  5 43  1  0  0  0  0
  5 44  1  0  0  0  0
  6  5  1  0  0  0  0
  7  8  1  6  0  0  0
  7 10  1  0  0  0  0
  7  9  1  0  0  0  0
  7  6  1  0  0  0  0
  9  3  1  0  0  0  0
 10 11  1  0  0  0  0
 12 11  2  0  0  0  0
 12 13  1  0  0  0  0
 13 14  3  0  0  0  0
 14 15  1  0  0  0  0
 15 19  1  0  0  0  0
 15 16  1  0  0  0  0
 16 17  1  0  0  0  0
 17 53  1  0  0  0  0
 17 52  1  0  0  0  0
 18 54  1  0  0  0  0
 18 17  1  0  0  0  0
 18 55  1  0  0  0  0
 19 18  1  0  0  0  0
 20 21  2  0  0  0  0
 20 10  1  0  0  0  0
 21 12  1  0  0  0  0
 22 23  1  6  0  0  0
 22 21  1  0  0  0  0
 23 58  1  0  0  0  0
 24 22  1  0  0  0  0
 25 24  2  0  0  0  0
 25 26  1  0  0  0  0
 26 20  1  0  0  0  0
 27 61  1  0  0  0  0
 27  2  1  0  0  0  0
 28 63  1  0  0  0  0
 28 27  1  0  0  0  0
 29 28  1  0  0  0  0
 30 64  1  0  0  0  0
 30 29  1  0  0  0  0
 31 30  1  0  0  0  0
 31 32  1  1  0  0  0
 33 31  1  0  0  0  0
 33 34  1  0  0  0  0
 34 36  2  0  0  0  0
 35 67  1  0  0  0  0
 35 34  1  0  0  0  0
 35 69  1  0  0  0  0
 37 31  1  0  0  0  0
 38 37  1  0  0  0  0
 38 70  1  0  0  0  0
 39 71  1  0  0  0  0
 39 38  1  0  0  0  0
 40 37  2  0  0  0  0
 42  4  1  0  0  0  0
 45  6  1  0  0  0  0
 46  6  1  0  0  0  0
 47  9  1  0  0  0  0
 48  9  1  0  0  0  0
 49 15  1  0  0  0  0
 50 16  1  0  0  0  0
 51 16  1  0  0  0  0
 56 19  1  0  0  0  0
 57 19  1  0  0  0  0
 59 23  1  0  0  0  0
 60 25  1  0  0  0  0
 62 28  1  0  0  0  0
 65 30  1  0  0  0  0
 66 33  1  0  0  0  0
 68 35  1  0  0  0  0
 72 39  1  0  0  0  0
 73 39  1  0  0  0  0
M  END
