-1 1
 OpenBabel05232414493D

 73 76  0  0  1  0  0  0  0  0999 V2000
    3.1042   13.4025    2.7642 O   0  0  0  0  0  0  0  0  0  0  0  0
    2.9654   12.7793    1.6979 C   0  0  0  0  0  0  0  0  0  0  0  0
    1.7107   12.9217    1.0230 N   0  0  0  0  0  0  0  0  0  0  0  0
    0.6732   13.6621    1.7091 C   0  0  0  0  0  0  0  0  0  0  0  0
    0.6908   15.1494    1.3487 C   0  0  0  0  0  0  0  0  0  0  0  0
    0.6501   15.3569   -0.1706 C   0  0  0  0  0  0  0  0  0  0  0  0
    1.6315   14.4654   -0.9389 C   0  0  2  0  0  0  0  0  0  0  0  0
    1.3702   14.4506   -2.0079 H   0  0  0  0  0  0  0  0  0  0  0  0
    1.5928   13.0100   -0.4084 C   0  0  0  0  0  0  0  0  0  0  0  0
    3.0046   14.9595   -0.8943 N   0  0  0  0  0  0  0  0  0  0  0  0
    3.5456   15.2981    0.2881 N   0  0  0  0  0  0  0  0  0  0  0  0
    4.8548   15.2022    0.1776 C   0  0  0  0  0  0  0  0  0  0  0  0
    5.6819   15.3127    1.3335 C   0  0  0  0  0  0  0  0  0  0  0  0
    6.2672   15.2374    2.3918 C   0  0  0  0  0  0  0  0  0  0  0  0
    6.7458   14.9935    3.7496 C   0  0  0  0  0  0  0  0  0  0  0  0
    6.4212   16.1216    4.7485 C   0  0  0  0  0  0  0  0  0  0  0  0
    6.5326   15.4179    6.0994 C   0  0  0  0  0  0  0  0  0  0  0  0
    5.8383   14.0680    5.8591 C   0  0  0  0  0  0  0  0  0  0  0  0
    6.0723   13.7293    4.3681 C   0  0  0  0  0  0  0  0  0  0  0  0
    3.9724   14.6556   -1.8034 C   0  0  0  0  0  0  0  0  0  0  0  0
    5.2000   14.8044   -1.1511 C   0  0  0  0  0  0  0  0  0  0  0  0
    6.3435   14.4528   -1.8992 C   0  0  2  0  0  3  0  0  0  0  0  0
    7.5880   14.4918   -1.3646 N   0  0  0  0  0  0  0  0  0  0  0  0
    6.2018   14.0817   -3.1727 N   0  0  0  0  0  0  0  0  0  0  0  0
    4.9641   14.0141   -3.6776 C   0  0  0  0  0  0  0  0  0  0  0  0
    3.8143   14.2732   -3.0780 N   0  0  0  0  0  2  0  0  0  0  0  0
    3.9566   11.9129    1.1557 C   0  0  0  0  0  3  0  0  0  0  0  0
    3.7397   10.7959    0.2958 C   0  0  0  0  0  0  0  0  0  0  0  0
    4.2885   11.0018   -1.7161 S   0  0  0  0  0  0  0  0  0  0  0  0
    3.4334    9.5372   -2.3671 C   0  0  0  0  0  0  0  0  0  0  0  0
    1.9145    9.7120   -2.5831 C   0  0  2  0  0  0  0  0  0  0  0  0
    1.5058   10.2200   -1.6926 H   0  0  0  0  0  0  0  0  0  0  0  0
    1.2461    8.4428   -2.7548 N   0  0  0  0  0  0  0  0  0  0  0  0
    0.9914    7.5913   -1.7359 C   0  0  0  0  0  0  0  0  0  0  0  0
    0.1771    6.3626   -2.1097 C   0  0  0  0  0  0  0  0  0  0  0  0
    1.3786    7.7701   -0.5944 O   0  0  0  0  0  0  0  0  0  0  0  0
    1.5478   10.5419   -3.8253 C   0  0  0  0  0  0  0  0  0  0  0  0
    2.0098   11.8013   -3.8624 N   0  0  0  0  0  0  0  0  0  0  0  0
    1.7474   12.6563   -4.9928 C   0  0  0  0  0  0  0  0  0  0  0  0
    0.8507   10.0630   -4.7158 O   0  0  0  0  0  0  0  0  0  0  0  0
    0.8260   13.5401    2.7877 H   0  0  0  0  0  0  0  0  0  0  0  0
   -0.3073   13.2204    1.4372 H   0  0  0  0  0  0  0  0  0  0  0  0
    1.6145   15.5759    1.7604 H   0  0  0  0  0  0  0  0  0  0  0  0
   -0.1689   15.6637    1.8115 H   0  0  0  0  0  0  0  0  0  0  0  0
    0.8235   16.4129   -0.4332 H   0  0  0  0  0  0  0  0  0  0  0  0
   -0.3571   15.0973   -0.5428 H   0  0  0  0  0  0  0  0  0  0  0  0
    2.3897   12.4429   -0.9034 H   0  0  0  0  0  0  0  0  0  0  0  0
    0.6277   12.5714   -0.7325 H   0  0  0  0  0  0  0  0  0  0  0  0
    7.8419   14.8590    3.7344 H   0  0  0  0  0  0  0  0  0  0  0  0
    5.3863   16.4613    4.5805 H   0  0  0  0  0  0  0  0  0  0  0  0
    7.0851   16.9927    4.6381 H   0  0  0  0  0  0  0  0  0  0  0  0
    6.0882   15.9942    6.9254 H   0  0  0  0  0  0  0  0  0  0  0  0
    7.5979   15.2629    6.3458 H   0  0  0  0  0  0  0  0  0  0  0  0
    4.7580   14.1684    6.0452 H   0  0  0  0  0  0  0  0  0  0  0  0
    6.2071   13.2844    6.5382 H   0  0  0  0  0  0  0  0  0  0  0  0
    5.1191   13.5226    3.8517 H   0  0  0  0  0  0  0  0  0  0  0  0
    6.7173   12.8489    4.2322 H   0  0  0  0  0  0  0  0  0  0  0  0
    7.6737   14.5394   -0.3571 H   0  0  0  0  0  0  0  0  0  0  0  0
    8.3149   14.0213   -1.8864 H   0  0  0  0  0  0  0  0  0  0  0  0
    4.9001   13.6929   -4.7243 H   0  0  0  0  0  0  0  0  0  0  0  0
    4.9287   12.0020    1.6479 H   0  0  0  0  0  0  0  0  0  0  0  0
    2.6968   10.4768    0.1691 H   0  0  0  0  0  0  0  0  0  0  0  0
    4.3764    9.9251    0.4920 H   0  0  0  0  0  0  0  0  0  0  0  0
    3.5560    8.7241   -1.6351 H   0  0  0  0  0  0  0  0  0  0  0  0
    3.9078    9.2155   -3.3076 H   0  0  0  0  0  0  0  0  0  0  0  0
    0.7997    8.3432   -3.6634 H   0  0  0  0  0  0  0  0  0  0  0  0
    0.7408    5.4673   -1.8123 H   0  0  0  0  0  0  0  0  0  0  0  0
   -0.0647    6.3017   -3.1798 H   0  0  0  0  0  0  0  0  0  0  0  0
   -0.7550    6.3713   -1.5267 H   0  0  0  0  0  0  0  0  0  0  0  0
    2.7003   12.0935   -3.1640 H   0  0  0  0  0  0  0  0  0  0  0  0
    2.1111   13.6607   -4.7438 H   0  0  0  0  0  0  0  0  0  0  0  0
    0.6688   12.6886   -5.2086 H   0  0  0  0  0  0  0  0  0  0  0  0
    2.2544   12.2983   -5.9053 H   0  0  0  0  0  0  0  0  0  0  0  0
  2  1  2  0  0  0  0
  3  2  1  0  0  0  0
  3  4  1  0  0  0  0
  4 41  1  0  0  0  0
  5  4  1  0  0  0  0
  5 43  1  0  0  0  0
  5 44  1  0  0  0  0
  6  5  1  0  0  0  0
  7  8  1  6  0  0  0
  7 10  1  0  0  0  0
  7  9  1  0  0  0  0
  7  6  1  0  0  0  0
  9  3  1  0  0  0  0
 10 11  1  0  0  0  0
 12 11  2  0  0  0  0
 12 13  1  0  0  0  0
 13 14  3  0  0  0  0
 14 15  1  0  0  0  0
 15 19  1  0  0  0  0
 15 16  1  0  0  0  0
 16 17  1  0  0  0  0
 17 53  1  0  0  0  0
 17 52  1  0  0  0  0
 18 54  1  0  0  0  0
 18 17  1  0  0  0  0
 18 55  1  0  0  0  0
 19 18  1  0  0  0  0
 20 21  2  0  0  0  0
 20 10  1  0  0  0  0
 21 12  1  0  0  0  0
 22 23  1  6  0  0  0
 22 21  1  0  0  0  0
 23 58  1  0  0  0  0
 24 22  1  0  0  0  0
 25 24  2  0  0  0  0
 25 26  1  0  0  0  0
 26 20  1  0  0  0  0
 27 61  1  0  0  0  0
 27  2  1  0  0  0  0
 28 63  1  0  0  0  0
 28 27  1  0  0  0  0
 29 28  1  0  0  0  0
 30 29  1  0  0  0  0
 30 64  1  0  0  0  0
 31 30  1  0  0  0  0
 31 32  1  1  0  0  0
 33 31  1  0  0  0  0
 33 34  1  0  0  0  0
 34 36  2  0  0  0  0
 35 67  1  0  0  0  0
 35 34  1  0  0  0  0
 35 69  1  0  0  0  0
 37 31  1  0  0  0  0
 38 37  1  0  0  0  0
 38 70  1  0  0  0  0
 39 71  1  0  0  0  0
 39 38  1  0  0  0  0
 40 37  2  0  0  0  0
 42  4  1  0  0  0  0
 45  6  1  0  0  0  0
 46  6  1  0  0  0  0
 47  9  1  0  0  0  0
 48  9  1  0  0  0  0
 49 15  1  0  0  0  0
 50 16  1  0  0  0  0
 51 16  1  0  0  0  0
 56 19  1  0  0  0  0
 57 19  1  0  0  0  0
 59 23  1  0  0  0  0
 60 25  1  0  0  0  0
 62 28  1  0  0  0  0
 65 30  1  0  0  0  0
 66 33  1  0  0  0  0
 68 35  1  0  0  0  0
 72 39  1  0  0  0  0
 73 39  1  0  0  0  0
M  END
