74
-1 1
O         4.943521   -8.330324    4.423725
C         4.008805   -7.805312    5.061941
N         3.062449   -8.629604    5.642523
C         1.680122   -8.286335    5.920489
C         0.736359   -9.015998    4.954212
C         1.032851  -10.515811    4.833080
C         2.523698  -10.842240    4.710713
H         2.690206  -11.915776    4.880930
C         3.317314  -10.047969    5.755281
N         3.075362  -10.573162    3.386389
N         2.718362   -9.484504    2.680962
C         3.642576   -9.265667    1.772193
C         3.586774   -8.060807    0.925891
C         3.843659   -8.117907   -0.472522
C         3.819798   -6.977478   -1.237801
C         3.311564   -6.844228    1.514447
C         3.280363   -5.651709    0.748073
C         3.537281   -5.712682   -0.652739
C         3.508113   -4.508731   -1.409072
C         3.243412   -3.305240   -0.801923
C         2.997815   -3.244373    0.593296
C         3.016517   -4.389654    1.350308
C         4.265628  -11.058834    2.951901
C         4.673549  -10.251087    1.881313
C         5.972817  -10.515404    1.390981
N         6.558008   -9.771586    0.414078
N         6.666960  -11.537616    1.893203
C         6.117091  -12.263083    2.879567
N         4.950869  -12.087439    3.469918
C         3.942894   -6.365312    5.240038
C         3.450030   -5.697376    6.343928
S         5.051848   -5.585807    8.257054
C         6.146317   -6.852578    7.577629
C         5.724063   -8.317102    7.849923
H         4.802624   -8.523520    7.294817
N         5.402716   -8.559821    9.230047
C         4.157637   -8.853565    9.662835
C         3.978025   -8.768648   11.167592
O         3.224102   -9.146288    8.929367
C         6.847098   -9.261548    7.405062
N         6.921002   -9.477106    6.072509
C         7.968146  -10.285207    5.506321
O         7.641165   -9.741811    8.201984
H         1.539778   -7.208820    5.798925
H         1.464017   -8.541540    6.973078
H         0.835118   -8.555013    3.962560
H        -0.303885   -8.874053    5.290823
H         0.478254  -10.952900    3.987632
H         0.685902  -11.029600    5.745571
H         4.388559  -10.242492    5.638396
H         3.022729  -10.366967    6.769295
H         4.054544   -9.085918   -0.934631
H         4.010957   -7.031691   -2.312980
H         3.143193   -6.792917    2.593015
H         3.702419   -4.556204   -2.484088
H         3.225413   -2.386733   -1.393471
H         2.797262   -2.279967    1.065314
H         2.838313   -4.356109    2.428200
H         6.208231   -8.836655    0.248274
H         7.552120   -9.920176    0.298269
H         6.730858  -13.092960    3.249413
H         4.610689   -5.832781    4.556588
H         2.756420   -6.170400    7.036051
H         3.430762   -4.607964    6.338253
H         7.168496   -6.702398    7.964718
H         6.199305   -6.733194    6.480584
H         6.118162   -8.334674    9.907419
H         4.894280   -9.024635   11.719439
H         3.161399   -9.435809   11.469731
H         3.700893   -7.733196   11.417692
H         6.252592   -9.020824    5.439108
H         8.965103   -9.840521    5.668526
H         7.797231  -10.386795    4.426006
H         7.983026  -11.290197    5.957797
