-1 1
 OpenBabel05192410563D

 74 78  0  0  1  0  0  0  0  0999 V2000
    0.5074   -0.0649    0.0167 O   0  0  0  0  0  0  0  0  0  0  0  0
   -0.3747    0.4984    0.7384 C   0  0  0  0  0  0  0  0  0  0  0  0
   -1.3284   -0.3609    1.3466 N   0  0  0  0  0  0  0  0  0  0  0  0
   -2.7202   -0.0213    1.5505 C   0  0  0  0  0  0  0  0  0  0  0  0
   -3.6325   -0.7428    0.5481 C   0  0  0  0  0  0  0  0  0  0  0  0
   -3.3377   -2.2440    0.4448 C   0  0  0  0  0  0  0  0  0  0  0  0
   -1.8445   -2.5728    0.3619 C   0  0  2  0  0  0  0  0  0  0  0  0
   -1.6849   -3.6468    0.5406 H   0  0  0  0  0  0  0  0  0  0  0  0
   -1.0744   -1.7727    1.4279 C   0  0  0  0  0  0  0  0  0  0  0  0
   -1.2685   -2.3121   -0.9525 N   0  0  0  0  0  0  0  0  0  0  0  0
   -1.6243   -1.2322   -1.6716 N   0  0  0  0  0  0  0  0  0  0  0  0
   -0.6853   -1.0056   -2.5609 C   0  0  0  0  0  0  0  0  0  0  0  0
   -0.7041    0.2274   -3.3677 C   0  0  0  0  0  0  0  0  0  0  0  0
   -0.4795    0.2185   -4.7722 C   0  0  0  0  0  0  0  0  0  0  0  0
   -0.4552    1.3921   -5.4868 C   0  0  0  0  0  0  0  0  0  0  0  0
   -0.8924    1.4288   -2.7157 C   0  0  0  0  0  0  0  0  0  0  0  0
   -0.8735    2.6530   -3.4307 C   0  0  0  0  0  0  0  0  0  0  0  0
   -0.6535    2.6425   -4.8391 C   0  0  0  0  0  0  0  0  0  0  0  0
   -0.6324    3.8808   -5.5386 C   0  0  0  0  0  0  0  0  0  0  0  0
   -0.8142    5.0671   -4.8698 C   0  0  0  0  0  0  0  0  0  0  0  0
   -1.0229    5.0764   -3.4670 C   0  0  0  0  0  0  0  0  0  0  0  0
   -1.0511    3.8975   -2.7635 C   0  0  0  0  0  0  0  0  0  0  0  0
   -0.0657   -2.7864   -1.3619 C   0  0  0  0  0  0  0  0  0  0  0  0
    0.3498   -1.9827   -2.4324 C   0  0  0  0  0  0  0  0  0  0  0  0
    1.6551   -2.2358   -2.9057 C   0  0  2  0  0  3  0  0  0  0  0  0
    2.2401   -1.4908   -3.8833 N   0  0  0  0  0  0  0  0  0  0  0  0
    2.3558   -3.2478   -2.3897 N   0  0  0  0  0  0  0  0  0  0  0  0
    1.7999   -3.9719   -1.4055 C   0  0  0  0  0  0  0  0  0  0  0  0
    0.6250   -3.8056   -0.8297 N   0  0  0  0  0  2  0  0  0  0  0  0
   -0.4337    1.8720    0.9961 C   0  0  0  0  0  3  0  0  0  0  0  0
   -0.8658    2.4484    2.2912 C   0  0  0  0  0  0  0  0  0  0  0  0
    0.5663    2.9392    3.4349 S   0  0  0  0  0  0  0  0  0  0  0  0
    1.7488    1.6242    3.0610 C   0  0  0  0  0  0  0  0  0  0  0  0
    1.3194    0.2000    3.4580 C   0  0  2  0  0  0  0  0  0  0  0  0
    0.3633   -0.0307    2.9692 H   0  0  0  0  0  0  0  0  0  0  0  0
    1.1256    0.0361    4.8743 N   0  0  0  0  0  0  0  0  0  0  0  0
   -0.0948   -0.0932    5.4484 C   0  0  0  0  0  0  0  0  0  0  0  0
   -0.0663   -0.2838    6.9560 C   0  0  0  0  0  0  0  0  0  0  0  0
   -1.1495   -0.0272    4.8410 O   0  0  0  0  0  0  0  0  0  0  0  0
    2.4063   -0.7884    3.0059 C   0  0  0  0  0  0  0  0  0  0  0  0
    2.4554   -1.0290    1.6867 N   0  0  0  0  0  0  0  0  0  0  0  0
    3.4473   -1.9131    1.1321 C   0  0  0  0  0  0  0  0  0  0  0  0
    3.1888   -1.2717    3.8203 O   0  0  0  0  0  0  0  0  0  0  0  0
   -2.8446    1.0595    1.4236 H   0  0  0  0  0  0  0  0  0  0  0  0
   -3.0046   -0.2687    2.5917 H   0  0  0  0  0  0  0  0  0  0  0  0
   -3.4885   -0.2860   -0.4395 H   0  0  0  0  0  0  0  0  0  0  0  0
   -4.6861   -0.5959    0.8406 H   0  0  0  0  0  0  0  0  0  0  0  0
   -3.8709   -2.6881   -0.4111 H   0  0  0  0  0  0  0  0  0  0  0  0
   -3.7099   -2.7510    1.3522 H   0  0  0  0  0  0  0  0  0  0  0  0
   -0.0008   -1.9646    1.3230 H   0  0  0  0  0  0  0  0  0  0  0  0
   -1.3904   -2.1413    2.4233 H   0  0  0  0  0  0  0  0  0  0  0  0
   -0.3304   -0.7382   -5.2801 H   0  0  0  0  0  0  0  0  0  0  0  0
   -0.2896    1.3766   -6.5676 H   0  0  0  0  0  0  0  0  0  0  0  0
   -1.0260    1.4427   -1.6298 H   0  0  0  0  0  0  0  0  0  0  0  0
   -0.4668    3.8738   -6.6196 H   0  0  0  0  0  0  0  0  0  0  0  0
   -0.7946    6.0120   -5.4186 H   0  0  0  0  0  0  0  0  0  0  0  0
   -1.1576    6.0275   -2.9468 H   0  0  0  0  0  0  0  0  0  0  0  0
   -1.2005    3.8835   -1.6804 H   0  0  0  0  0  0  0  0  0  0  0  0
    1.8779   -0.5609   -4.0530 H   0  0  0  0  0  0  0  0  0  0  0  0
    3.2383   -1.6214   -3.9827 H   0  0  0  0  0  0  0  0  0  0  0  0
    2.4177   -4.7935   -1.0231 H   0  0  0  0  0  0  0  0  0  0  0  0
    0.2776    2.4602    0.4058 H   0  0  0  0  0  0  0  0  0  0  0  0
   -1.4574    1.7452    2.8911 H   0  0  0  0  0  0  0  0  0  0  0  0
   -1.4182    3.4012    2.2263 H   0  0  0  0  0  0  0  0  0  0  0  0
    2.6790    1.8892    3.5884 H   0  0  0  0  0  0  0  0  0  0  0  0
    1.9479    1.6373    1.9804 H   0  0  0  0  0  0  0  0  0  0  0  0
    1.9601   -0.2374    5.3821 H   0  0  0  0  0  0  0  0  0  0  0  0
    0.8852   -0.6946    7.3230 H   0  0  0  0  0  0  0  0  0  0  0  0
   -0.8936   -0.9445    7.2446 H   0  0  0  0  0  0  0  0  0  0  0  0
   -0.2307    0.6951    7.4310 H   0  0  0  0  0  0  0  0  0  0  0  0
    1.7524   -0.6079    1.0384 H   0  0  0  0  0  0  0  0  0  0  0  0
    4.4696   -1.5709    1.3636 H   0  0  0  0  0  0  0  0  0  0  0  0
    3.3196   -1.9493    0.0421 H   0  0  0  0  0  0  0  0  0  0  0  0
    3.3462   -2.9365    1.5299 H   0  0  0  0  0  0  0  0  0  0  0  0
  1  2  2  0  0  0  0
  2 30  1  0  0  0  0
  2  3  1  0  0  0  0
  3  9  1  0  0  0  0
  3  4  1  0  0  0  0
  4 45  1  0  0  0  0
  5 47  1  0  0  0  0
  5  4  1  0  0  0  0
  6  5  1  0  0  0  0
  6 49  1  0  0  0  0
  7  6  1  0  0  0  0
  7  8  1  1  0  0  0
  7  9  1  0  0  0  0
  9 51  1  0  0  0  0
 10  7  1  0  0  0  0
 11 10  1  0  0  0  0
 12 24  1  0  0  0  0
 12 11  2  0  0  0  0
 13 16  1  0  0  0  0
 13 12  1  0  0  0  0
 14 13  2  0  0  0  0
 15 18  2  0  0  0  0
 15 14  1  0  0  0  0
 16 54  1  0  0  0  0
 17 22  1  0  0  0  0
 17 16  2  0  0  0  0
 18 17  1  0  0  0  0
 19 20  2  0  0  0  0
 19 18  1  0  0  0  0
 20 21  1  0  0  0  0
 21 57  1  0  0  0  0
 21 22  2  0  0  0  0
 22 58  1  0  0  0  0
 23 10  1  0  0  0  0
 23 29  1  0  0  0  0
 24 23  2  0  0  0  0
 25 26  1  6  0  0  0
 25 24  1  0  0  0  0
 25 27  1  0  0  0  0
 27 28  2  0  0  0  0
 28 61  1  0  0  0  0
 28 29  1  0  0  0  0
 30 31  1  0  0  0  0
 31 63  1  0  0  0  0
 31 32  1  0  0  0  0
 33 32  1  0  0  0  0
 33 34  1  0  0  0  0
 33 65  1  0  0  0  0
 34 35  1  6  0  0  0
 34 36  1  0  0  0  0
 36 67  1  0  0  0  0
 36 37  1  0  0  0  0
 37 38  1  0  0  0  0
 38 69  1  0  0  0  0
 38 68  1  0  0  0  0
 38 70  1  0  0  0  0
 39 37  2  0  0  0  0
 40 34  1  0  0  0  0
 40 43  2  0  0  0  0
 41 40  1  0  0  0  0
 42 72  1  0  0  0  0
 42 74  1  0  0  0  0
 42 41  1  0  0  0  0
 44  4  1  0  0  0  0
 46  5  1  0  0  0  0
 48  6  1  0  0  0  0
 50  9  1  0  0  0  0
 52 14  1  0  0  0  0
 53 15  1  0  0  0  0
 55 19  1  0  0  0  0
 56 20  1  0  0  0  0
 59 26  1  0  0  0  0
 60 26  1  0  0  0  0
 62 30  1  0  0  0  0
 64 31  1  0  0  0  0
 66 33  1  0  0  0  0
 71 41  1  0  0  0  0
 73 42  1  0  0  0  0
M  END
