-1 1
 OpenBabel05232414493D

 74 77  0  0  1  0  0  0  0  0999 V2000
    4.9435   -8.3303    4.4237 O   0  0  0  0  0  0  0  0  0  0  0  0
    4.0088   -7.8053    5.0619 C   0  0  0  0  0  0  0  0  0  0  0  0
    3.0624   -8.6296    5.6425 N   0  0  0  0  0  0  0  0  0  0  0  0
    1.6801   -8.2863    5.9205 C   0  0  0  0  0  0  0  0  0  0  0  0
    0.7364   -9.0160    4.9542 C   0  0  0  0  0  0  0  0  0  0  0  0
    1.0329  -10.5158    4.8331 C   0  0  0  0  0  0  0  0  0  0  0  0
    2.5237  -10.8422    4.7107 C   0  0  2  0  0  0  0  0  0  0  0  0
    2.6902  -11.9158    4.8809 H   0  0  0  0  0  0  0  0  0  0  0  0
    3.3173  -10.0480    5.7553 C   0  0  0  0  0  0  0  0  0  0  0  0
    3.0754  -10.5732    3.3864 N   0  0  0  0  0  0  0  0  0  0  0  0
    2.7184   -9.4845    2.6810 N   0  0  0  0  0  0  0  0  0  0  0  0
    3.6426   -9.2657    1.7722 C   0  0  0  0  0  0  0  0  0  0  0  0
    3.5868   -8.0608    0.9259 C   0  0  0  0  0  0  0  0  0  0  0  0
    3.8437   -8.1179   -0.4725 C   0  0  0  0  0  0  0  0  0  0  0  0
    3.8198   -6.9775   -1.2378 C   0  0  0  0  0  0  0  0  0  0  0  0
    3.3116   -6.8442    1.5144 C   0  0  0  0  0  0  0  0  0  0  0  0
    3.2804   -5.6517    0.7481 C   0  0  0  0  0  0  0  0  0  0  0  0
    3.5373   -5.7127   -0.6527 C   0  0  0  0  0  0  0  0  0  0  0  0
    3.5081   -4.5087   -1.4091 C   0  0  0  0  0  0  0  0  0  0  0  0
    3.2434   -3.3052   -0.8019 C   0  0  0  0  0  0  0  0  0  0  0  0
    2.9978   -3.2444    0.5933 C   0  0  0  0  0  0  0  0  0  0  0  0
    3.0165   -4.3897    1.3503 C   0  0  0  0  0  0  0  0  0  0  0  0
    4.2656  -11.0588    2.9519 C   0  0  0  0  0  0  0  0  0  0  0  0
    4.6735  -10.2511    1.8813 C   0  0  0  0  0  0  0  0  0  0  0  0
    5.9728  -10.5154    1.3910 C   0  0  2  0  0  3  0  0  0  0  0  0
    6.5580   -9.7716    0.4141 N   0  0  0  0  0  0  0  0  0  0  0  0
    6.6670  -11.5376    1.8932 N   0  0  0  0  0  0  0  0  0  0  0  0
    6.1171  -12.2631    2.8796 C   0  0  0  0  0  0  0  0  0  0  0  0
    4.9509  -12.0874    3.4699 N   0  0  0  0  0  2  0  0  0  0  0  0
    3.9429   -6.3653    5.2400 C   0  0  0  0  0  3  0  0  0  0  0  0
    3.4500   -5.6974    6.3439 C   0  0  0  0  0  3  0  0  0  0  0  0
    5.0518   -5.5858    8.2571 S   0  0  0  0  0  1  0  0  0  0  0  0
    6.1463   -6.8526    7.5776 C   0  0  0  0  0  0  0  0  0  0  0  0
    5.7241   -8.3171    7.8499 C   0  0  2  0  0  0  0  0  0  0  0  0
    4.8026   -8.5235    7.2948 H   0  0  0  0  0  0  0  0  0  0  0  0
    5.4027   -8.5598    9.2300 N   0  0  0  0  0  0  0  0  0  0  0  0
    4.1576   -8.8536    9.6628 C   0  0  0  0  0  0  0  0  0  0  0  0
    3.9780   -8.7686   11.1676 C   0  0  0  0  0  0  0  0  0  0  0  0
    3.2241   -9.1463    8.9294 O   0  0  0  0  0  0  0  0  0  0  0  0
    6.8471   -9.2615    7.4051 C   0  0  0  0  0  0  0  0  0  0  0  0
    6.9210   -9.4771    6.0725 N   0  0  0  0  0  0  0  0  0  0  0  0
    7.9681  -10.2852    5.5063 C   0  0  0  0  0  0  0  0  0  0  0  0
    7.6412   -9.7418    8.2020 O   0  0  0  0  0  0  0  0  0  0  0  0
    1.5398   -7.2088    5.7989 H   0  0  0  0  0  0  0  0  0  0  0  0
    1.4640   -8.5415    6.9731 H   0  0  0  0  0  0  0  0  0  0  0  0
    0.8351   -8.5550    3.9626 H   0  0  0  0  0  0  0  0  0  0  0  0
   -0.3039   -8.8741    5.2908 H   0  0  0  0  0  0  0  0  0  0  0  0
    0.4783  -10.9529    3.9876 H   0  0  0  0  0  0  0  0  0  0  0  0
    0.6859  -11.0296    5.7456 H   0  0  0  0  0  0  0  0  0  0  0  0
    4.3886  -10.2425    5.6384 H   0  0  0  0  0  0  0  0  0  0  0  0
    3.0227  -10.3670    6.7693 H   0  0  0  0  0  0  0  0  0  0  0  0
    4.0545   -9.0859   -0.9346 H   0  0  0  0  0  0  0  0  0  0  0  0
    4.0110   -7.0317   -2.3130 H   0  0  0  0  0  0  0  0  0  0  0  0
    3.1432   -6.7929    2.5930 H   0  0  0  0  0  0  0  0  0  0  0  0
    3.7024   -4.5562   -2.4841 H   0  0  0  0  0  0  0  0  0  0  0  0
    3.2254   -2.3867   -1.3935 H   0  0  0  0  0  0  0  0  0  0  0  0
    2.7973   -2.2800    1.0653 H   0  0  0  0  0  0  0  0  0  0  0  0
    2.8383   -4.3561    2.4282 H   0  0  0  0  0  0  0  0  0  0  0  0
    6.2082   -8.8367    0.2483 H   0  0  0  0  0  0  0  0  0  0  0  0
    7.5521   -9.9202    0.2983 H   0  0  0  0  0  0  0  0  0  0  0  0
    6.7309  -13.0930    3.2494 H   0  0  0  0  0  0  0  0  0  0  0  0
    4.6107   -5.8328    4.5566 H   0  0  0  0  0  0  0  0  0  0  0  0
    2.7564   -6.1704    7.0361 H   0  0  0  0  0  0  0  0  0  0  0  0
    3.4308   -4.6080    6.3383 H   0  0  0  0  0  0  0  0  0  0  0  0
    7.1685   -6.7024    7.9647 H   0  0  0  0  0  0  0  0  0  0  0  0
    6.1993   -6.7332    6.4806 H   0  0  0  0  0  0  0  0  0  0  0  0
    6.1182   -8.3347    9.9074 H   0  0  0  0  0  0  0  0  0  0  0  0
    4.8943   -9.0246   11.7194 H   0  0  0  0  0  0  0  0  0  0  0  0
    3.1614   -9.4358   11.4697 H   0  0  0  0  0  0  0  0  0  0  0  0
    3.7009   -7.7332   11.4177 H   0  0  0  0  0  0  0  0  0  0  0  0
    6.2526   -9.0208    5.4391 H   0  0  0  0  0  0  0  0  0  0  0  0
    8.9651   -9.8405    5.6685 H   0  0  0  0  0  0  0  0  0  0  0  0
    7.7972  -10.3868    4.4260 H   0  0  0  0  0  0  0  0  0  0  0  0
    7.9830  -11.2902    5.9578 H   0  0  0  0  0  0  0  0  0  0  0  0
  1  2  2  0  0  0  0
  2 30  1  0  0  0  0
  2  3  1  0  0  0  0
  3  9  1  0  0  0  0
  3  4  1  0  0  0  0
  4 45  1  0  0  0  0
  5 47  1  0  0  0  0
  5  4  1  0  0  0  0
  6  5  1  0  0  0  0
  6 49  1  0  0  0  0
  7  6  1  0  0  0  0
  7  8  1  1  0  0  0
  7  9  1  0  0  0  0
  9 51  1  0  0  0  0
 10  7  1  0  0  0  0
 11 10  1  0  0  0  0
 12 24  1  0  0  0  0
 12 11  2  0  0  0  0
 13 16  1  0  0  0  0
 13 12  1  0  0  0  0
 14 13  2  0  0  0  0
 15 18  2  0  0  0  0
 15 14  1  0  0  0  0
 16 54  1  0  0  0  0
 17 22  1  0  0  0  0
 17 16  2  0  0  0  0
 18 17  1  0  0  0  0
 19 20  2  0  0  0  0
 19 18  1  0  0  0  0
 20 21  1  0  0  0  0
 21 57  1  0  0  0  0
 21 22  2  0  0  0  0
 22 58  1  0  0  0  0
 23 10  1  0  0  0  0
 23 29  1  0  0  0  0
 24 23  2  0  0  0  0
 25 26  1  6  0  0  0
 25 24  1  0  0  0  0
 25 27  1  0  0  0  0
 27 28  2  0  0  0  0
 28 61  1  0  0  0  0
 28 29  1  0  0  0  0
 30 31  1  0  0  0  0
 31 63  1  0  0  0  0
 33 34  1  0  0  0  0
 33 65  1  0  0  0  0
 33 32  1  0  0  0  0
 34 35  1  6  0  0  0
 34 36  1  0  0  0  0
 36 37  1  0  0  0  0
 36 67  1  0  0  0  0
 37 38  1  0  0  0  0
 38 70  1  0  0  0  0
 38 69  1  0  0  0  0
 38 68  1  0  0  0  0
 39 37  2  0  0  0  0
 40 34  1  0  0  0  0
 40 43  2  0  0  0  0
 41 40  1  0  0  0  0
 42 72  1  0  0  0  0
 42 74  1  0  0  0  0
 42 41  1  0  0  0  0
 44  4  1  0  0  0  0
 46  5  1  0  0  0  0
 48  6  1  0  0  0  0
 50  9  1  0  0  0  0
 52 14  1  0  0  0  0
 53 15  1  0  0  0  0
 55 19  1  0  0  0  0
 56 20  1  0  0  0  0
 59 26  1  0  0  0  0
 60 26  1  0  0  0  0
 62 30  1  0  0  0  0
 64 31  1  0  0  0  0
 66 33  1  0  0  0  0
 71 41  1  0  0  0  0
 73 42  1  0  0  0  0
M  END
