74
-1 1
O         0.507445   -0.064927    0.016715
C        -0.374700    0.498415    0.738361
N        -1.328376   -0.360859    1.346645
C        -2.720233   -0.021304    1.550482
C        -3.632465   -0.742775    0.548138
C        -3.337682   -2.244033    0.444831
C        -1.844476   -2.572782    0.361925
H        -1.684901   -3.646784    0.540606
C        -1.074420   -1.772672    1.427861
N        -1.268454   -2.312054   -0.952450
N        -1.624290   -1.232187   -1.671615
C        -0.685342   -1.005584   -2.560884
C        -0.704093    0.227406   -3.367735
C        -0.479465    0.218481   -4.772215
C        -0.455226    1.392132   -5.486803
C        -0.892402    1.428771   -2.715741
C        -0.873518    2.653013   -3.430673
C        -0.653465    2.642483   -4.839091
C        -0.632401    3.880819   -5.538563
C        -0.814241    5.067131   -4.869795
C        -1.022871    5.076414   -3.466969
C        -1.051072    3.897497   -2.763469
C        -0.065742   -2.786439   -1.361947
C         0.349844   -1.982665   -2.432429
C         1.655071   -2.235818   -2.905749
N         2.240072   -1.490801   -3.883332
N         2.355816   -3.247753   -2.389674
C         1.799878   -3.971941   -1.405492
N         0.624983   -3.805595   -0.829651
C        -0.433670    1.871973    0.996079
C        -0.865812    2.448350    2.291228
S         0.566344    2.939233    3.434868
C         1.748772    1.624238    3.060952
C         1.319408    0.199959    3.458011
H         0.363320   -0.030747    2.969180
N         1.125648    0.036087    4.874332
C        -0.094754   -0.093173    5.448383
C        -0.066291   -0.283777    6.955963
O        -1.149453   -0.027224    4.840960
C         2.406263   -0.788352    3.005917
N         2.455373   -1.029034    1.686744
C         3.447302   -1.913095    1.132146
O         3.188823   -1.271683    3.820295
H        -2.844620    1.059469    1.423632
H        -3.004611   -0.268716    2.591671
H        -3.488495   -0.286042   -0.439543
H        -4.686064   -0.595860    0.840598
H        -3.870920   -2.688095   -0.411135
H        -3.709926   -2.750968    1.352196
H        -0.000840   -1.964565    1.323043
H        -1.390412   -2.141308    2.423265
H        -0.330387   -0.738225   -5.280119
H        -0.289580    1.376585   -6.567622
H        -1.026036    1.442726   -1.629758
H        -0.466780    3.873790   -6.619581
H        -0.794626    6.012042   -5.418591
H        -1.157578    6.027544   -2.946779
H        -1.200525    3.883516   -1.680419
H         1.877870   -0.560879   -4.052975
H         3.238327   -1.621440   -3.982687
H         2.417725   -4.793538   -1.023091
H         0.277591    2.460160    0.405810
H        -1.457431    1.745241    2.891093
H        -1.418208    3.401210    2.226276
H         2.678985    1.889198    3.588355
H         1.947870    1.637294    1.980406
H         1.960096   -0.237403    5.382110
H         0.885212   -0.694563    7.323032
H        -0.893575   -0.944546    7.244571
H        -0.230656    0.695147    7.430965
H         1.752449   -0.607855    1.038372
H         4.469582   -1.570945    1.363602
H         3.319599   -1.949322    0.042114
H         3.346205   -2.936526    1.529921
