-1 1
 OpenBabel05232414493D

 74 77  0  0  1  0  0  0  0  0999 V2000
    8.5531   13.4625    0.1157 O   0  0  0  0  0  0  0  0  0  0  0  0
    8.8915   13.6063    1.3123 C   0  0  0  0  0  0  0  0  0  0  0  0
    8.2196   12.8648    2.2701 N   0  0  0  0  0  0  0  0  0  0  0  0
    8.2103   13.1350    3.6953 C   0  0  0  0  0  0  0  0  0  0  0  0
    6.7734   13.1660    4.2177 C   0  0  0  0  0  0  0  0  0  0  0  0
    5.9843   11.9172    3.8327 C   0  0  0  0  0  0  0  0  0  0  0  0
    6.0809   11.5965    2.3403 C   0  0  2  0  0  0  0  0  0  0  0  0
    5.7159   10.5704    2.1721 H   0  0  0  0  0  0  0  0  0  0  0  0
    7.5444   11.6386    1.8970 C   0  0  0  0  0  0  0  0  0  0  0  0
    5.2504   12.4478    1.4714 N   0  0  0  0  0  0  0  0  0  0  0  0
    5.3320   12.2077    0.1487 N   0  0  0  0  0  0  0  0  0  0  0  0
    4.5082   13.0204   -0.4737 C   0  0  0  0  0  0  0  0  0  0  0  0
    4.3565   13.0256   -1.9468 C   0  0  0  0  0  0  0  0  0  0  0  0
    3.1072   12.8183   -2.4977 C   0  0  0  0  0  0  0  0  0  0  0  0
    2.9130   12.8379   -3.8991 C   0  0  0  0  0  0  0  0  0  0  0  0
    3.9748   13.0646   -4.7384 C   0  0  0  0  0  0  0  0  0  0  0  0
    5.4794   13.2801   -2.8030 C   0  0  0  0  0  0  0  0  0  0  0  0
    5.2777   13.2933   -4.2165 C   0  0  0  0  0  0  0  0  0  0  0  0
    6.3874   13.5480   -5.0683 C   0  0  0  0  0  0  0  0  0  0  0  0
    7.6337   13.7928   -4.5436 C   0  0  0  0  0  0  0  0  0  0  0  0
    7.8269   13.7958   -3.1421 C   0  0  0  0  0  0  0  0  0  0  0  0
    6.7789   13.5422   -2.2906 C   0  0  0  0  0  0  0  0  0  0  0  0
    4.3372   13.4227    1.7287 C   0  0  0  0  0  0  0  0  0  0  0  0
    3.8336   13.8368    0.4818 C   0  0  0  0  0  0  0  0  0  0  0  0
    2.8990   14.9006    0.5067 C   0  0  1  0  0  3  0  0  0  0  0  0
    2.3633   15.4271   -0.6191 N   0  0  0  0  0  0  0  0  0  0  0  0
    2.5144   15.4055    1.6785 N   0  0  0  0  0  0  0  0  0  0  0  0
    3.0486   14.8875    2.7947 C   0  0  0  0  0  0  0  0  0  0  0  0
    3.9435   13.9276    2.9113 N   0  0  0  0  0  2  0  0  0  0  0  0
    9.9700   14.4971    1.6760 C   0  0  0  0  0  3  0  0  0  0  0  0
   10.8979   14.3189    2.6914 C   0  0  0  0  0  3  0  0  0  0  0  0
   12.7778   12.9087    2.0769 S   0  0  0  0  0  1  0  0  0  0  0  0
   11.9523   12.1993    0.6370 C   0  0  0  0  0  0  0  0  0  0  0  0
   10.9698   11.0433    0.9430 C   0  0  2  0  0  0  0  0  0  0  0  0
   10.1107   11.4537    1.4844 H   0  0  0  0  0  0  0  0  0  0  0  0
   11.5354   10.0433    1.8073 N   0  0  0  0  0  0  0  0  0  0  0  0
   11.1262    9.8363    3.0761 C   0  0  0  0  0  0  0  0  0  0  0  0
   12.0483    8.9604    3.9031 C   0  0  0  0  0  0  0  0  0  0  0  0
   10.1103   10.3181    3.5587 O   0  0  0  0  0  0  0  0  0  0  0  0
   10.5186   10.3895   -0.3683 C   0  0  0  0  0  0  0  0  0  0  0  0
    9.5782   11.0799   -1.0528 N   0  0  0  0  0  0  0  0  0  0  0  0
    9.0676   10.6283   -2.3203 C   0  0  0  0  0  0  0  0  0  0  0  0
   11.0181    9.3438   -0.7609 O   0  0  0  0  0  0  0  0  0  0  0  0
    8.6739   14.1109    3.8712 H   0  0  0  0  0  0  0  0  0  0  0  0
    8.8042   12.3643    4.2200 H   0  0  0  0  0  0  0  0  0  0  0  0
    6.2585   14.0556    3.8251 H   0  0  0  0  0  0  0  0  0  0  0  0
    6.7887   13.2656    5.3151 H   0  0  0  0  0  0  0  0  0  0  0  0
    4.9382   12.0039    4.1544 H   0  0  0  0  0  0  0  0  0  0  0  0
    6.4212   11.0438    4.3455 H   0  0  0  0  0  0  0  0  0  0  0  0
    7.6075   11.5092    0.8128 H   0  0  0  0  0  0  0  0  0  0  0  0
    8.0608   10.7941    2.3891 H   0  0  0  0  0  0  0  0  0  0  0  0
    2.2588   12.6246   -1.8364 H   0  0  0  0  0  0  0  0  0  0  0  0
    1.9150   12.6606   -4.3068 H   0  0  0  0  0  0  0  0  0  0  0  0
    3.8328   13.0752   -5.8225 H   0  0  0  0  0  0  0  0  0  0  0  0
    6.2291   13.5483   -6.1502 H   0  0  0  0  0  0  0  0  0  0  0  0
    8.4786   13.9873   -5.2088 H   0  0  0  0  0  0  0  0  0  0  0  0
    8.8108   13.9901   -2.7099 H   0  0  0  0  0  0  0  0  0  0  0  0
    6.9789   13.5254   -1.2168 H   0  0  0  0  0  0  0  0  0  0  0  0
    2.7366   15.1798   -1.5249 H   0  0  0  0  0  0  0  0  0  0  0  0
    1.8054   16.2629   -0.5169 H   0  0  0  0  0  0  0  0  0  0  0  0
    2.6920   15.3304    3.7325 H   0  0  0  0  0  0  0  0  0  0  0  0
   10.1987   15.2141    0.8826 H   0  0  0  0  0  0  0  0  0  0  0  0
   10.6968   13.6588    3.5332 H   0  0  0  0  0  0  0  0  0  0  0  0
   11.5999   15.1258    2.9016 H   0  0  0  0  0  0  0  0  0  0  0  0
   12.7086   11.8439   -0.0828 H   0  0  0  0  0  0  0  0  0  0  0  0
   11.3701   12.9911    0.1327 H   0  0  0  0  0  0  0  0  0  0  0  0
   12.3782    9.5911    1.4807 H   0  0  0  0  0  0  0  0  0  0  0  0
   12.7922    9.6140    4.3837 H   0  0  0  0  0  0  0  0  0  0  0  0
   12.5826    8.2144    3.2970 H   0  0  0  0  0  0  0  0  0  0  0  0
   11.4630    8.4586    4.6834 H   0  0  0  0  0  0  0  0  0  0  0  0
    9.2254   11.9674   -0.6710 H   0  0  0  0  0  0  0  0  0  0  0  0
    9.4651   11.2191   -3.1640 H   0  0  0  0  0  0  0  0  0  0  0  0
    7.9701   10.7089   -2.3423 H   0  0  0  0  0  0  0  0  0  0  0  0
    9.3640    9.5806   -2.4619 H   0  0  0  0  0  0  0  0  0  0  0  0
  1  2  2  0  0  0  0
  2 30  1  0  0  0  0
  2  3  1  0  0  0  0
  3  4  1  0  0  0  0
  4 44  1  0  0  0  0
  4  5  1  0  0  0  0
  4 45  1  0  0  0  0
  5 47  1  0  0  0  0
  6 48  1  0  0  0  0
  6  5  1  0  0  0  0
  6 49  1  0  0  0  0
  7  8  1  6  0  0  0
  7  6  1  0  0  0  0
  9  3  1  0  0  0  0
  9  7  1  0  0  0  0
  9 51  1  0  0  0  0
 10 23  1  0  0  0  0
 10  7  1  0  0  0  0
 11 10  1  0  0  0  0
 12 11  2  0  0  0  0
 12 24  1  0  0  0  0
 13 12  1  0  0  0  0
 14 13  1  0  0  0  0
 14 52  1  0  0  0  0
 15 14  2  0  0  0  0
 16 18  2  0  0  0  0
 16 15  1  0  0  0  0
 17 22  1  0  0  0  0
 17 13  2  0  0  0  0
 18 17  1  0  0  0  0
 19 20  2  0  0  0  0
 19 18  1  0  0  0  0
 20 21  1  0  0  0  0
 21 57  1  0  0  0  0
 21 22  2  0  0  0  0
 22 58  1  0  0  0  0
 23 29  1  0  0  0  0
 24 25  1  0  0  0  0
 24 23  2  0  0  0  0
 25 26  1  1  0  0  0
 25 27  1  0  0  0  0
 26 60  1  0  0  0  0
 27 28  2  0  0  0  0
 28 29  1  0  0  0  0
 28 61  1  0  0  0  0
 30 31  1  0  0  0  0
 31 64  1  0  0  0  0
 31 63  1  0  0  0  0
 33 34  1  0  0  0  0
 33 32  1  0  0  0  0
 34 35  1  1  0  0  0
 34 36  1  0  0  0  0
 36 37  1  0  0  0  0
 37 39  2  0  0  0  0
 37 38  1  0  0  0  0
 38 68  1  0  0  0  0
 38 70  1  0  0  0  0
 40 34  1  0  0  0  0
 41 71  1  0  0  0  0
 41 40  1  0  0  0  0
 42 41  1  0  0  0  0
 43 40  2  0  0  0  0
 46  5  1  0  0  0  0
 50  9  1  0  0  0  0
 53 15  1  0  0  0  0
 54 16  1  0  0  0  0
 55 19  1  0  0  0  0
 56 20  1  0  0  0  0
 59 26  1  0  0  0  0
 62 30  1  0  0  0  0
 65 33  1  0  0  0  0
 66 33  1  0  0  0  0
 67 36  1  0  0  0  0
 69 38  1  0  0  0  0
 72 42  1  0  0  0  0
 73 42  1  0  0  0  0
 74 42  1  0  0  0  0
M  END
