-1 1
 OpenBabel05232413493D

 68 70  0  0  1  0  0  0  0  0999 V2000
   -0.9536    2.0967    0.9281 O   0  0  0  0  0  0  0  0  0  0  0  0
   -0.9639    0.8785    0.7998 C   0  0  0  0  0  0  0  0  0  0  0  0
   -0.8149    0.0397    1.8740 N   0  0  0  0  0  0  0  0  0  0  0  0
   -0.7894   -1.4162    1.8488 C   0  0  0  0  0  0  0  0  0  0  0  0
    0.5986   -1.9427    2.2078 C   0  0  0  0  0  0  0  0  0  0  0  0
    1.0864   -1.3602    3.5345 C   0  0  0  0  0  0  0  0  0  0  0  0
    0.9471    0.1665    3.5990 C   0  0  2  0  0  0  0  0  0  0  0  0
    1.1128    0.5031    4.6327 H   0  0  0  0  0  0  0  0  0  0  0  0
   -0.4545    0.6115    3.1517 C   0  0  0  0  0  0  0  0  0  0  0  0
    1.9769    0.8637    2.8394 N   0  0  0  0  0  0  0  0  0  0  0  0
    1.9982    0.8633    1.4954 N   0  0  0  0  0  0  0  0  0  0  0  0
    2.9427    1.6900    1.1010 C   0  0  0  0  0  0  0  0  0  0  0  0
    3.1491    1.9549   -0.3360 C   0  0  0  0  0  0  0  0  0  0  0  0
    4.4316    1.9613   -0.9009 C   0  0  0  0  0  0  0  0  0  0  0  0
    4.5996    2.2113   -2.2624 C   0  0  0  0  0  0  0  0  0  0  0  0
    3.4873    2.4443   -3.0709 C   0  0  0  0  0  0  0  0  0  0  0  0
    2.2083    2.4325   -2.5130 C   0  0  0  0  0  0  0  0  0  0  0  0
    2.0350    2.1969   -1.1515 C   0  0  0  0  0  0  0  0  0  0  0  0
    2.9217    1.6961    3.3426 C   0  0  0  0  0  0  0  0  0  0  0  0
    3.5885    2.2620    2.2431 C   0  0  0  0  0  0  0  0  0  0  0  0
    4.5694    3.2324    2.5662 C   0  0  2  0  0  3  0  0  0  0  0  0
    5.2661    3.9130    1.6258 N   0  0  0  0  0  0  0  0  0  0  0  0
    4.8332    3.4929    3.8477 N   0  0  0  0  0  0  0  0  0  0  0  0
    4.1342    2.8449    4.7918 C   0  0  0  0  0  0  0  0  0  0  0  0
    3.1705    1.9578    4.6347 N   0  0  0  0  0  2  0  0  0  0  0  0
   -1.1299    0.2878   -0.5626 C   0  0  0  0  0  0  0  0  0  0  0  0
   -0.2417   -0.5298   -1.1296 C   0  0  0  0  0  0  0  0  0  0  0  0
   -1.9097   -3.6007   -0.9668 S   0  0  0  0  0  1  0  0  0  0  0  0
   -3.3187   -2.5181   -0.5214 C   0  0  0  0  0  0  0  0  0  0  0  0
   -4.2960   -2.2320   -1.6852 C   0  0  2  0  0  0  0  0  0  0  0  0
   -5.2216   -1.7791   -1.2993 H   0  0  0  0  0  0  0  0  0  0  0  0
   -4.5989   -3.4834   -2.3372 N   0  0  0  0  0  0  0  0  0  0  0  0
   -5.5717   -3.6360   -3.2598 C   0  0  0  0  0  0  0  0  0  0  0  0
   -5.5845   -4.9931   -3.9485 C   0  0  0  0  0  0  0  0  0  0  0  0
   -6.3771   -2.7668   -3.5504 O   0  0  0  0  0  0  0  0  0  0  0  0
   -3.7162   -1.1726   -2.6329 C   0  0  0  0  0  0  0  0  0  0  0  0
   -2.7504   -1.6283   -3.4736 N   0  0  0  0  0  0  0  0  0  0  0  0
   -2.0651   -0.7085   -4.3418 C   0  0  0  0  0  0  0  0  0  0  0  0
   -4.0773   -0.0071   -2.6040 O   0  0  0  0  0  0  0  0  0  0  0  0
   -1.0981   -1.8119    0.8738 H   0  0  0  0  0  0  0  0  0  0  0  0
   -1.5258   -1.7827    2.5890 H   0  0  0  0  0  0  0  0  0  0  0  0
    1.3009   -1.6786    1.4033 H   0  0  0  0  0  0  0  0  0  0  0  0
    0.5621   -3.0411    2.2587 H   0  0  0  0  0  0  0  0  0  0  0  0
    2.1304   -1.6419    3.7428 H   0  0  0  0  0  0  0  0  0  0  0  0
    0.4753   -1.7711    4.3572 H   0  0  0  0  0  0  0  0  0  0  0  0
   -0.5106    1.7035    3.0677 H   0  0  0  0  0  0  0  0  0  0  0  0
   -1.1749    0.2792    3.9213 H   0  0  0  0  0  0  0  0  0  0  0  0
    5.3000    1.7455   -0.2721 H   0  0  0  0  0  0  0  0  0  0  0  0
    5.6023    2.2056   -2.6965 H   0  0  0  0  0  0  0  0  0  0  0  0
    3.6173    2.6310   -4.1394 H   0  0  0  0  0  0  0  0  0  0  0  0
    1.3323    2.6096   -3.1407 H   0  0  0  0  0  0  0  0  0  0  0  0
    1.0378    2.2047   -0.7044 H   0  0  0  0  0  0  0  0  0  0  0  0
    4.9671    3.8918    0.6606 H   0  0  0  0  0  0  0  0  0  0  0  0
    5.8412    4.6784    1.9490 H   0  0  0  0  0  0  0  0  0  0  0  0
    4.3975    3.0989    5.8255 H   0  0  0  0  0  0  0  0  0  0  0  0
   -1.9884    0.6672   -1.1282 H   0  0  0  0  0  0  0  0  0  0  0  0
    0.6398   -0.8853   -0.5910 H   0  0  0  0  0  0  0  0  0  0  0  0
   -0.3655   -0.8756   -2.1553 H   0  0  0  0  0  0  0  0  0  0  0  0
   -2.9669   -1.5414   -0.1459 H   0  0  0  0  0  0  0  0  0  0  0  0
   -3.8989   -2.9824    0.2926 H   0  0  0  0  0  0  0  0  0  0  0  0
   -3.8694   -4.1895   -2.2001 H   0  0  0  0  0  0  0  0  0  0  0  0
   -6.6262   -5.2853   -4.1350 H   0  0  0  0  0  0  0  0  0  0  0  0
   -5.0731   -5.7751   -3.3700 H   0  0  0  0  0  0  0  0  0  0  0  0
   -5.0820   -4.8944   -4.9231 H   0  0  0  0  0  0  0  0  0  0  0  0
   -2.2698   -2.4752   -3.1480 H   0  0  0  0  0  0  0  0  0  0  0  0
   -2.7915   -0.1698   -4.9682 H   0  0  0  0  0  0  0  0  0  0  0  0
   -1.3786   -1.2661   -4.9941 H   0  0  0  0  0  0  0  0  0  0  0  0
   -1.4874    0.0559   -3.7903 H   0  0  0  0  0  0  0  0  0  0  0  0
  2  1  2  0  0  0  0
  2  3  1  0  0  0  0
  3  9  1  0  0  0  0
  4  3  1  0  0  0  0
  4  5  1  0  0  0  0
  4 41  1  0  0  0  0
  5 43  1  0  0  0  0
  5  6  1  0  0  0  0
  6  7  1  0  0  0  0
  6 44  1  0  0  0  0
  6 45  1  0  0  0  0
  7  8  1  1  0  0  0
  9  7  1  0  0  0  0
  9 47  1  0  0  0  0
 10 19  1  0  0  0  0
 10  7  1  0  0  0  0
 11 10  1  0  0  0  0
 12 11  2  0  0  0  0
 12 20  1  0  0  0  0
 13 12  1  0  0  0  0
 14 13  1  0  0  0  0
 14 48  1  0  0  0  0
 15 14  2  0  0  0  0
 16 17  2  0  0  0  0
 16 15  1  0  0  0  0
 17 18  1  0  0  0  0
 18 52  1  0  0  0  0
 18 13  2  0  0  0  0
 19 25  1  0  0  0  0
 20 21  1  0  0  0  0
 20 19  2  0  0  0  0
 21 22  1  6  0  0  0
 21 23  1  0  0  0  0
 22 54  1  0  0  0  0
 23 24  2  0  0  0  0
 24 55  1  0  0  0  0
 25 24  1  0  0  0  0
 26  2  1  0  0  0  0
 27 57  1  0  0  0  0
 27 26  2  0  0  0  0
 28 29  1  0  0  0  0
 29 59  1  0  0  0  0
 29 60  1  0  0  0  0
 30 31  1  1  0  0  0
 30 29  1  0  0  0  0
 32 61  1  0  0  0  0
 32 30  1  0  0  0  0
 33 32  1  0  0  0  0
 34 63  1  0  0  0  0
 34 33  1  0  0  0  0
 35 33  2  0  0  0  0
 36 39  2  0  0  0  0
 36 30  1  0  0  0  0
 37 65  1  0  0  0  0
 37 36  1  0  0  0  0
 38 68  1  0  0  0  0
 38 37  1  0  0  0  0
 40  4  1  0  0  0  0
 42  5  1  0  0  0  0
 46  9  1  0  0  0  0
 49 15  1  0  0  0  0
 50 16  1  0  0  0  0
 51 17  1  0  0  0  0
 53 22  1  0  0  0  0
 56 26  1  0  0  0  0
 58 27  1  0  0  0  0
 62 34  1  0  0  0  0
 64 34  1  0  0  0  0
 66 38  1  0  0  0  0
 67 38  1  0  0  0  0
M  END
