68
-1 1
O        -0.325670    1.031187    0.523965
C        -0.210050   -0.197723    0.322954
N        -0.387282   -1.030515    1.474008
C         0.041880   -2.407420    1.587291
C         1.502981   -2.503631    2.029339
C         1.725119   -1.715181    3.327780
C         1.081123   -0.322188    3.331760
H         1.030701    0.061133    4.362527
C        -0.348553   -0.368342    2.754427
N         1.878285    0.656289    2.601547
N         2.595570    0.330595    1.514189
C         2.953419    1.445127    0.913547
C         3.722190    1.403214   -0.344032
C         4.811947    2.256173   -0.564840
C         5.518365    2.201987   -1.766410
C         5.147068    1.289932   -2.753689
C         4.063859    0.436541   -2.535762
C         3.349961    0.490828   -1.341455
C         1.744834    1.999903    2.711512
C         2.440922    2.568805    1.635160
C         2.329043    3.973620    1.524275
N         2.878447    4.679579    0.497987
N         1.669800    4.654877    2.461310
C         1.095640    3.972706    3.463858
N         1.070332    2.668499    3.657452
C         0.008220   -0.707864   -0.982117
C         0.180461   -2.042365   -1.561027
S        -1.399795   -3.008923   -2.149048
C        -2.624291   -2.594368   -0.869654
C        -3.919828   -1.992246   -1.417495
H        -4.630972   -1.916696   -0.577815
N        -4.556150   -2.859472   -2.379849
C        -5.872640   -3.195215   -2.296668
C        -6.451247   -3.767174   -3.578095
O        -6.542927   -3.052229   -1.291958
C        -3.853388   -0.563509   -2.006506
N        -2.872746    0.224757   -1.535739
C        -2.723386    1.596097   -1.952033
O        -4.716514   -0.187144   -2.786181
H        -0.132358   -2.953963    0.656419
H        -0.601646   -2.897565    2.344202
H         2.138563   -2.088746    1.234480
H         1.789265   -3.557678    2.183651
H         2.799003   -1.629268    3.556324
H         1.263186   -2.270458    4.162989
H        -0.736497    0.649461    2.637732
H        -0.987396   -0.917694    3.470389
H         5.111801    2.960333    0.215902
H         6.368989    2.869186   -1.927030
H         5.699873    1.246789   -3.695472
H         3.760811   -0.271620   -3.310773
H         2.469813   -0.139729   -1.171874
H         3.100008    4.185406   -0.356643
H         2.552167    5.633229    0.411123
H         0.571817    4.585972    4.207184
H         0.049926    0.113805   -1.702662
H         0.721784   -2.775088   -0.951294
H         0.708313   -1.978307   -2.523806
H        -2.153580   -1.897612   -0.159426
H        -2.879979   -3.505741   -0.310780
H        -4.120745   -2.882829   -3.294258
H        -7.371218   -4.315366   -3.343192
H        -5.740364   -4.429525   -4.093583
H        -6.694826   -2.931568   -4.252269
H        -2.033242   -0.194435   -1.123794
H        -2.446566    1.679171   -3.017669
H        -1.933742    2.040207   -1.330674
H        -3.666018    2.145707   -1.810353
