71
-1 1
O         0.212806   -0.072067   -1.659251
C         0.156965   -0.810489   -0.684776
N        -1.010867   -1.191145   -0.099927
C        -1.174124   -2.281050    0.860054
C        -1.823980   -1.771814    2.139895
C        -3.107227   -0.996805    1.832632
C        -2.878955    0.090589    0.775420
H        -3.843478    0.547360    0.496663
C        -2.249368   -0.543943   -0.476088
N        -1.997703    1.169578    1.262123
N        -1.291344    1.867150    0.355233
C        -0.499563    2.703601    0.985519
C         0.418374    3.578260    0.232713
C         1.083654    3.059520   -0.912412
N         1.922765    3.769478   -1.652783
C         0.628562    4.903559    0.608202
C         1.519793    5.671171   -0.153107
C         2.117334    5.022177   -1.260778
N         2.942222    5.928292   -1.877663
H         3.489079    5.722183   -2.701196
C         2.882543    7.123193   -1.200775
C         2.023860    7.016925   -0.137537
C        -1.695001    1.582839    2.523459
C        -0.695883    2.568405    2.396678
C        -0.151086    3.048579    3.613021
N         0.887118    3.923792    3.662725
N        -0.669487    2.642331    4.770482
C        -1.674198    1.754674    4.738909
N        -2.221865    1.175552    3.690382
C         1.431753   -1.280698   -0.047979
C         1.817412   -0.850724    1.152103
S         0.896573   -5.373623    0.520594
C        -0.238801   -5.458718   -0.915940
C        -0.114078   -4.291744   -1.923377
H        -0.172335   -3.353189   -1.352496
N        -1.156397   -4.297072   -2.929672
C        -2.414345   -3.863372   -2.743012
C        -3.265828   -3.795261   -4.000896
O        -2.877191   -3.521532   -1.661297
C         1.206104   -4.300450   -2.710365
N         2.315867   -4.231430   -1.954509
C         3.617570   -4.378640   -2.549604
O         1.215305   -4.361432   -3.937980
H        -0.216772   -2.783975    1.048035
H        -1.825359   -3.030038    0.380346
H        -1.118475   -1.131397    2.694574
H        -2.051060   -2.627721    2.792847
H        -3.537215   -0.569678    2.746419
H        -3.849798   -1.686136    1.397756
H        -2.031520    0.203825   -1.244385
H        -2.949555   -1.294170   -0.879384
H         0.900475    2.019407   -1.211943
H         0.101793    5.329775    1.466089
H         3.467555    7.977890   -1.533776
H         1.781447    7.806308    0.569905
H         1.477581    4.035297    2.849773
H         1.302150    4.060164    4.574887
H        -2.079032    1.468789    5.716957
H         2.069690   -1.918245   -0.668107
H         1.166261   -0.214478    1.762052
H         2.787523   -1.127236    1.571893
H        -1.281214   -5.437870   -0.563700
H        -0.105429   -6.402721   -1.473257
H        -0.787323   -4.437334   -3.868756
H        -3.383883   -2.738713   -4.285012
H        -4.263467   -4.192480   -3.771011
H        -2.835483   -4.344588   -4.849628
H         2.165244   -4.496379   -0.951329
H         3.692240   -3.755025   -3.451917
H         3.830755   -5.421336   -2.845713
H         4.383306   -4.059689   -1.828694
