71
-1 1
O         0.590430   -0.321021    0.766679
C         0.324580   -1.534945    0.931487
N        -1.046592   -1.940017    0.770778
C        -1.749098   -2.718432    1.766628
C        -2.612769   -1.830401    2.667443
C        -3.540323   -0.916816    1.863981
C        -2.829607   -0.167111    0.733484
H        -3.587804    0.217254    0.031068
C        -1.920117   -1.138675   -0.045525
N        -2.067388    1.013226    1.158429
N        -1.390783    1.642571    0.181264
C        -0.572752    2.505865    0.730354
C         0.464173    3.167646   -0.083670
C         1.329741    2.310002   -0.815451
N         2.319675    2.746830   -1.580953
C         0.653907    4.543922   -0.127677
C         1.700461    5.032661   -0.924835
C         2.469535    4.066332   -1.618733
N         3.424030    4.736005   -2.342167
H         4.106847    4.279963   -2.929700
C         3.283630    6.087135   -2.130043
C         2.242237    6.318805   -1.269352
C        -1.708646    1.495847    2.377180
C        -0.730356    2.479787    2.146400
C        -0.167951    3.081546    3.291326
N         0.824993    4.011740    3.213318
N        -0.627727    2.757041    4.498765
C        -1.603991    1.839051    4.571683
N        -2.182188    1.172226    3.593458
C         1.279291   -2.533834    1.167696
C         1.122133   -4.002294    1.061208
S         1.987899   -4.848160   -0.393679
C         0.698293   -4.776684   -1.668163
C         0.152143   -3.384483   -2.043736
H        -0.280129   -2.927306   -1.141478
N        -0.882537   -3.518927   -3.047191
C        -2.161600   -3.851496   -2.781236
C        -3.093142   -3.835235   -3.982977
O        -2.576696   -4.122435   -1.664583
C         1.221250   -2.479735   -2.671154
N         1.941342   -1.755246   -1.810461
C         3.042139   -0.921877   -2.219263
O         1.361004   -2.466654   -3.894367
H        -1.018390   -3.252393    2.386532
H        -2.378360   -3.475999    1.258137
H        -1.959114   -1.214943    3.302111
H        -3.218560   -2.457169    3.344062
H        -4.064455   -0.216996    2.529979
H        -4.306816   -1.536822    1.367128
H        -1.318831   -0.569061   -0.764007
H        -2.592253   -1.818099   -0.604310
H         1.187691    1.227542   -0.696274
H         0.001838    5.214149    0.439014
H         3.948589    6.796342   -2.618453
H         1.901405    7.292640   -0.925801
H         1.384634    4.038249    2.370595
H         1.293138    4.215176    4.086614
H        -1.959446    1.614226    5.584876
H         2.271272   -2.158946    1.439427
H         0.077541   -4.329298    0.966433
H         1.557167   -4.553549    1.912022
H        -0.162481   -5.380120   -1.342421
H         1.127577   -5.248713   -2.566004
H        -0.562262   -3.294931   -3.986021
H        -3.709052   -2.924592   -3.934939
H        -3.768192   -4.698452   -3.915827
H        -2.563396   -3.851651   -4.945726
H         1.748858   -1.868955   -0.803786
H         3.199229   -1.057806   -3.297088
H         3.959347   -1.210223   -1.681952
H         2.844098    0.143363   -2.021732
