-1 1
 OpenBabel05192410563D

 71 75  0  0  1  0  0  0  0  0999 V2000
    0.5904   -0.3210    0.7667 O   0  0  0  0  0  0  0  0  0  0  0  0
    0.3246   -1.5349    0.9315 C   0  0  0  0  0  0  0  0  0  0  0  0
   -1.0466   -1.9400    0.7708 N   0  0  0  0  0  0  0  0  0  0  0  0
   -1.7491   -2.7184    1.7666 C   0  0  0  0  0  0  0  0  0  0  0  0
   -2.6128   -1.8304    2.6674 C   0  0  0  0  0  0  0  0  0  0  0  0
   -3.5403   -0.9168    1.8640 C   0  0  0  0  0  0  0  0  0  0  0  0
   -2.8296   -0.1671    0.7335 C   0  0  2  0  0  0  0  0  0  0  0  0
   -3.5878    0.2173    0.0311 H   0  0  0  0  0  0  0  0  0  0  0  0
   -1.9201   -1.1387   -0.0455 C   0  0  0  0  0  0  0  0  0  0  0  0
   -2.0674    1.0132    1.1584 N   0  0  0  0  0  0  0  0  0  0  0  0
   -1.3908    1.6426    0.1813 N   0  0  0  0  0  0  0  0  0  0  0  0
   -0.5728    2.5059    0.7304 C   0  0  0  0  0  0  0  0  0  0  0  0
    0.4642    3.1676   -0.0837 C   0  0  0  0  0  0  0  0  0  0  0  0
    1.3297    2.3100   -0.8155 C   0  0  0  0  0  0  0  0  0  0  0  0
    2.3197    2.7468   -1.5810 N   0  0  0  0  0  0  0  0  0  0  0  0
    0.6539    4.5439   -0.1277 C   0  0  0  0  0  0  0  0  0  0  0  0
    1.7005    5.0327   -0.9248 C   0  0  0  0  0  0  0  0  0  0  0  0
    2.4695    4.0663   -1.6187 C   0  0  0  0  0  0  0  0  0  0  0  0
    3.4240    4.7360   -2.3422 N   0  0  0  0  0  0  0  0  0  0  0  0
    4.1068    4.2800   -2.9297 H   0  0  0  0  0  0  0  0  0  0  0  0
    3.2836    6.0871   -2.1300 C   0  0  0  0  0  0  0  0  0  0  0  0
    2.2422    6.3188   -1.2694 C   0  0  0  0  0  0  0  0  0  0  0  0
   -1.7086    1.4958    2.3772 C   0  0  0  0  0  0  0  0  0  0  0  0
   -0.7304    2.4798    2.1464 C   0  0  0  0  0  0  0  0  0  0  0  0
   -0.1680    3.0815    3.2913 C   0  0  1  0  0  3  0  0  0  0  0  0
    0.8250    4.0117    3.2133 N   0  0  0  0  0  0  0  0  0  0  0  0
   -0.6277    2.7570    4.4988 N   0  0  0  0  0  0  0  0  0  0  0  0
   -1.6040    1.8391    4.5717 C   0  0  0  0  0  0  0  0  0  0  0  0
   -2.1822    1.1722    3.5935 N   0  0  0  0  0  2  0  0  0  0  0  0
    1.2793   -2.5338    1.1677 C   0  0  0  0  0  3  0  0  0  0  0  0
    1.1221   -4.0023    1.0612 C   0  0  0  0  0  0  0  0  0  0  0  0
    1.9879   -4.8482   -0.3937 S   0  0  0  0  0  0  0  0  0  0  0  0
    0.6983   -4.7767   -1.6682 C   0  0  0  0  0  0  0  0  0  0  0  0
    0.1521   -3.3845   -2.0437 C   0  0  2  0  0  0  0  0  0  0  0  0
   -0.2801   -2.9273   -1.1415 H   0  0  0  0  0  0  0  0  0  0  0  0
   -0.8825   -3.5189   -3.0472 N   0  0  0  0  0  0  0  0  0  0  0  0
   -2.1616   -3.8515   -2.7812 C   0  0  0  0  0  0  0  0  0  0  0  0
   -3.0931   -3.8352   -3.9830 C   0  0  0  0  0  0  0  0  0  0  0  0
   -2.5767   -4.1224   -1.6646 O   0  0  0  0  0  0  0  0  0  0  0  0
    1.2212   -2.4797   -2.6712 C   0  0  0  0  0  0  0  0  0  0  0  0
    1.9413   -1.7552   -1.8105 N   0  0  0  0  0  0  0  0  0  0  0  0
    3.0421   -0.9219   -2.2193 C   0  0  0  0  0  0  0  0  0  0  0  0
    1.3610   -2.4667   -3.8944 O   0  0  0  0  0  0  0  0  0  0  0  0
   -1.0184   -3.2524    2.3865 H   0  0  0  0  0  0  0  0  0  0  0  0
   -2.3784   -3.4760    1.2581 H   0  0  0  0  0  0  0  0  0  0  0  0
   -1.9591   -1.2149    3.3021 H   0  0  0  0  0  0  0  0  0  0  0  0
   -3.2186   -2.4572    3.3441 H   0  0  0  0  0  0  0  0  0  0  0  0
   -4.0645   -0.2170    2.5300 H   0  0  0  0  0  0  0  0  0  0  0  0
   -4.3068   -1.5368    1.3671 H   0  0  0  0  0  0  0  0  0  0  0  0
   -1.3188   -0.5691   -0.7640 H   0  0  0  0  0  0  0  0  0  0  0  0
   -2.5923   -1.8181   -0.6043 H   0  0  0  0  0  0  0  0  0  0  0  0
    1.1877    1.2275   -0.6963 H   0  0  0  0  0  0  0  0  0  0  0  0
    0.0018    5.2141    0.4390 H   0  0  0  0  0  0  0  0  0  0  0  0
    3.9486    6.7963   -2.6185 H   0  0  0  0  0  0  0  0  0  0  0  0
    1.9014    7.2926   -0.9258 H   0  0  0  0  0  0  0  0  0  0  0  0
    1.3846    4.0382    2.3706 H   0  0  0  0  0  0  0  0  0  0  0  0
    1.2931    4.2152    4.0866 H   0  0  0  0  0  0  0  0  0  0  0  0
   -1.9594    1.6142    5.5849 H   0  0  0  0  0  0  0  0  0  0  0  0
    2.2713   -2.1589    1.4394 H   0  0  0  0  0  0  0  0  0  0  0  0
    0.0775   -4.3293    0.9664 H   0  0  0  0  0  0  0  0  0  0  0  0
    1.5572   -4.5535    1.9120 H   0  0  0  0  0  0  0  0  0  0  0  0
   -0.1625   -5.3801   -1.3424 H   0  0  0  0  0  0  0  0  0  0  0  0
    1.1276   -5.2487   -2.5660 H   0  0  0  0  0  0  0  0  0  0  0  0
   -0.5623   -3.2949   -3.9860 H   0  0  0  0  0  0  0  0  0  0  0  0
   -3.7091   -2.9246   -3.9349 H   0  0  0  0  0  0  0  0  0  0  0  0
   -3.7682   -4.6985   -3.9158 H   0  0  0  0  0  0  0  0  0  0  0  0
   -2.5634   -3.8517   -4.9457 H   0  0  0  0  0  0  0  0  0  0  0  0
    1.7489   -1.8690   -0.8038 H   0  0  0  0  0  0  0  0  0  0  0  0
    3.1992   -1.0578   -3.2971 H   0  0  0  0  0  0  0  0  0  0  0  0
    3.9593   -1.2102   -1.6820 H   0  0  0  0  0  0  0  0  0  0  0  0
    2.8441    0.1434   -2.0217 H   0  0  0  0  0  0  0  0  0  0  0  0
  1  2  2  0  0  0  0
  2 30  1  0  0  0  0
  3  2  1  0  0  0  0
  3  4  1  0  0  0  0
  4 44  1  0  0  0  0
  4  5  1  0  0  0  0
  5 46  1  0  0  0  0
  5 47  1  0  0  0  0
  6 48  1  0  0  0  0
  6  5  1  0  0  0  0
  7  8  1  6  0  0  0
  7 10  1  0  0  0  0
  7  6  1  0  0  0  0
  9  7  1  0  0  0  0
  9  3  1  0  0  0  0
 10 23  1  0  0  0  0
 11 12  2  0  0  0  0
 11 10  1  0  0  0  0
 12 24  1  0  0  0  0
 13 12  1  0  0  0  0
 14 52  1  0  0  0  0
 14 13  2  0  0  0  0
 15 14  1  0  0  0  0
 16 13  1  0  0  0  0
 16 53  1  0  0  0  0
 17 16  2  0  0  0  0
 18 15  2  0  0  0  0
 18 17  1  0  0  0  0
 19 21  1  0  0  0  0
 19 18  1  0  0  0  0
 20 19  1  0  0  0  0
 21 22  2  0  0  0  0
 22 55  1  0  0  0  0
 22 17  1  0  0  0  0
 23 29  1  0  0  0  0
 24 23  2  0  0  0  0
 24 25  1  0  0  0  0
 25 26  1  6  0  0  0
 25 27  1  0  0  0  0
 26 57  1  0  0  0  0
 27 28  2  0  0  0  0
 28 58  1  0  0  0  0
 29 28  1  0  0  0  0
 30 59  1  0  0  0  0
 31 30  1  0  0  0  0
 31 61  1  0  0  0  0
 32 31  1  0  0  0  0
 33 62  1  0  0  0  0
 33 32  1  0  0  0  0
 34 33  1  0  0  0  0
 34 35  1  1  0  0  0
 36 37  1  0  0  0  0
 36 34  1  0  0  0  0
 37 39  2  0  0  0  0
 38 65  1  0  0  0  0
 38 66  1  0  0  0  0
 38 37  1  0  0  0  0
 40 34  1  0  0  0  0
 40 41  1  0  0  0  0
 41 68  1  0  0  0  0
 42 71  1  0  0  0  0
 42 41  1  0  0  0  0
 42 70  1  0  0  0  0
 43 40  2  0  0  0  0
 45  4  1  0  0  0  0
 49  6  1  0  0  0  0
 50  9  1  0  0  0  0
 51  9  1  0  0  0  0
 54 21  1  0  0  0  0
 56 26  1  0  0  0  0
 60 31  1  0  0  0  0
 63 33  1  0  0  0  0
 64 36  1  0  0  0  0
 67 38  1  0  0  0  0
 69 42  1  0  0  0  0
M  END
