-1 1
 OpenBabel05232413493D

 71 74  0  0  1  0  0  0  0  0999 V2000
    0.2128   -0.0721   -1.6593 O   0  0  0  0  0  0  0  0  0  0  0  0
    0.1570   -0.8105   -0.6848 C   0  0  0  0  0  0  0  0  0  0  0  0
   -1.0109   -1.1911   -0.0999 N   0  0  0  0  0  0  0  0  0  0  0  0
   -1.1741   -2.2811    0.8601 C   0  0  0  0  0  0  0  0  0  0  0  0
   -1.8240   -1.7718    2.1399 C   0  0  0  0  0  0  0  0  0  0  0  0
   -3.1072   -0.9968    1.8326 C   0  0  0  0  0  0  0  0  0  0  0  0
   -2.8790    0.0906    0.7754 C   0  0  2  0  0  0  0  0  0  0  0  0
   -3.8435    0.5474    0.4967 H   0  0  0  0  0  0  0  0  0  0  0  0
   -2.2494   -0.5439   -0.4761 C   0  0  0  0  0  0  0  0  0  0  0  0
   -1.9977    1.1696    1.2621 N   0  0  0  0  0  0  0  0  0  0  0  0
   -1.2913    1.8672    0.3552 N   0  0  0  0  0  0  0  0  0  0  0  0
   -0.4996    2.7036    0.9855 C   0  0  0  0  0  0  0  0  0  0  0  0
    0.4184    3.5783    0.2327 C   0  0  0  0  0  0  0  0  0  0  0  0
    1.0837    3.0595   -0.9124 C   0  0  0  0  0  0  0  0  0  0  0  0
    1.9228    3.7695   -1.6528 N   0  0  0  0  0  0  0  0  0  0  0  0
    0.6286    4.9036    0.6082 C   0  0  0  0  0  0  0  0  0  0  0  0
    1.5198    5.6712   -0.1531 C   0  0  0  0  0  0  0  0  0  0  0  0
    2.1173    5.0222   -1.2608 C   0  0  0  0  0  0  0  0  0  0  0  0
    2.9422    5.9283   -1.8777 N   0  0  0  0  0  0  0  0  0  0  0  0
    3.4891    5.7222   -2.7012 H   0  0  0  0  0  0  0  0  0  0  0  0
    2.8825    7.1232   -1.2008 C   0  0  0  0  0  0  0  0  0  0  0  0
    2.0239    7.0169   -0.1375 C   0  0  0  0  0  0  0  0  0  0  0  0
   -1.6950    1.5828    2.5235 C   0  0  0  0  0  0  0  0  0  0  0  0
   -0.6959    2.5684    2.3967 C   0  0  0  0  0  0  0  0  0  0  0  0
   -0.1511    3.0486    3.6130 C   0  0  1  0  0  3  0  0  0  0  0  0
    0.8871    3.9238    3.6627 N   0  0  0  0  0  0  0  0  0  0  0  0
   -0.6695    2.6423    4.7705 N   0  0  0  0  0  0  0  0  0  0  0  0
   -1.6742    1.7547    4.7389 C   0  0  0  0  0  0  0  0  0  0  0  0
   -2.2219    1.1756    3.6904 N   0  0  0  0  0  2  0  0  0  0  0  0
    1.4318   -1.2807   -0.0480 C   0  0  0  0  0  0  0  0  0  0  0  0
    1.8174   -0.8507    1.1521 C   0  0  0  0  0  0  0  0  0  0  0  0
    0.8966   -5.3736    0.5206 S   0  0  0  0  0  1  0  0  0  0  0  0
   -0.2388   -5.4587   -0.9159 C   0  0  0  0  0  0  0  0  0  0  0  0
   -0.1141   -4.2917   -1.9234 C   0  0  2  0  0  0  0  0  0  0  0  0
   -0.1723   -3.3532   -1.3525 H   0  0  0  0  0  0  0  0  0  0  0  0
   -1.1564   -4.2971   -2.9297 N   0  0  0  0  0  0  0  0  0  0  0  0
   -2.4143   -3.8634   -2.7430 C   0  0  0  0  0  0  0  0  0  0  0  0
   -3.2658   -3.7953   -4.0009 C   0  0  0  0  0  0  0  0  0  0  0  0
   -2.8772   -3.5215   -1.6613 O   0  0  0  0  0  0  0  0  0  0  0  0
    1.2061   -4.3004   -2.7104 C   0  0  0  0  0  0  0  0  0  0  0  0
    2.3159   -4.2314   -1.9545 N   0  0  0  0  0  0  0  0  0  0  0  0
    3.6176   -4.3786   -2.5496 C   0  0  0  0  0  0  0  0  0  0  0  0
    1.2153   -4.3614   -3.9380 O   0  0  0  0  0  0  0  0  0  0  0  0
   -0.2168   -2.7840    1.0480 H   0  0  0  0  0  0  0  0  0  0  0  0
   -1.8254   -3.0300    0.3803 H   0  0  0  0  0  0  0  0  0  0  0  0
   -1.1185   -1.1314    2.6946 H   0  0  0  0  0  0  0  0  0  0  0  0
   -2.0511   -2.6277    2.7928 H   0  0  0  0  0  0  0  0  0  0  0  0
   -3.5372   -0.5697    2.7464 H   0  0  0  0  0  0  0  0  0  0  0  0
   -3.8498   -1.6861    1.3978 H   0  0  0  0  0  0  0  0  0  0  0  0
   -2.0315    0.2038   -1.2444 H   0  0  0  0  0  0  0  0  0  0  0  0
   -2.9496   -1.2942   -0.8794 H   0  0  0  0  0  0  0  0  0  0  0  0
    0.9005    2.0194   -1.2119 H   0  0  0  0  0  0  0  0  0  0  0  0
    0.1018    5.3298    1.4661 H   0  0  0  0  0  0  0  0  0  0  0  0
    3.4676    7.9779   -1.5338 H   0  0  0  0  0  0  0  0  0  0  0  0
    1.7814    7.8063    0.5699 H   0  0  0  0  0  0  0  0  0  0  0  0
    1.4776    4.0353    2.8498 H   0  0  0  0  0  0  0  0  0  0  0  0
    1.3021    4.0602    4.5749 H   0  0  0  0  0  0  0  0  0  0  0  0
   -2.0790    1.4688    5.7170 H   0  0  0  0  0  0  0  0  0  0  0  0
    2.0697   -1.9182   -0.6681 H   0  0  0  0  0  0  0  0  0  0  0  0
    1.1663   -0.2145    1.7621 H   0  0  0  0  0  0  0  0  0  0  0  0
    2.7875   -1.1272    1.5719 H   0  0  0  0  0  0  0  0  0  0  0  0
   -1.2812   -5.4379   -0.5637 H   0  0  0  0  0  0  0  0  0  0  0  0
   -0.1054   -6.4027   -1.4733 H   0  0  0  0  0  0  0  0  0  0  0  0
   -0.7873   -4.4373   -3.8688 H   0  0  0  0  0  0  0  0  0  0  0  0
   -3.3839   -2.7387   -4.2850 H   0  0  0  0  0  0  0  0  0  0  0  0
   -4.2635   -4.1925   -3.7710 H   0  0  0  0  0  0  0  0  0  0  0  0
   -2.8355   -4.3446   -4.8496 H   0  0  0  0  0  0  0  0  0  0  0  0
    2.1652   -4.4964   -0.9513 H   0  0  0  0  0  0  0  0  0  0  0  0
    3.6922   -3.7550   -3.4519 H   0  0  0  0  0  0  0  0  0  0  0  0
    3.8308   -5.4213   -2.8457 H   0  0  0  0  0  0  0  0  0  0  0  0
    4.3833   -4.0597   -1.8287 H   0  0  0  0  0  0  0  0  0  0  0  0
  1  2  2  0  0  0  0
  2  3  1  0  0  0  0
  2 30  1  0  0  0  0
  3  4  1  0  0  0  0
  4 44  1  0  0  0  0
  4  5  1  0  0  0  0
  5 46  1  0  0  0  0
  5 47  1  0  0  0  0
  6  5  1  0  0  0  0
  6 48  1  0  0  0  0
  7  8  1  6  0  0  0
  7 10  1  0  0  0  0
  7  6  1  0  0  0  0
  9  3  1  0  0  0  0
  9  7  1  0  0  0  0
 10 23  1  0  0  0  0
 11 12  2  0  0  0  0
 11 10  1  0  0  0  0
 12 24  1  0  0  0  0
 13 16  1  0  0  0  0
 13 12  1  0  0  0  0
 14 13  2  0  0  0  0
 15 18  2  0  0  0  0
 15 14  1  0  0  0  0
 16 53  1  0  0  0  0
 17 22  1  0  0  0  0
 17 16  2  0  0  0  0
 18 17  1  0  0  0  0
 19 18  1  0  0  0  0
 19 21  1  0  0  0  0
 20 19  1  0  0  0  0
 21 22  2  0  0  0  0
 22 55  1  0  0  0  0
 23 29  1  0  0  0  0
 24 23  2  0  0  0  0
 24 25  1  0  0  0  0
 25 26  1  6  0  0  0
 25 27  1  0  0  0  0
 26 57  1  0  0  0  0
 28 27  2  0  0  0  0
 28 58  1  0  0  0  0
 29 28  1  0  0  0  0
 30 31  2  0  0  0  0
 31 61  1  0  0  0  0
 31 60  1  0  0  0  0
 33 62  1  0  0  0  0
 33 32  1  0  0  0  0
 34 35  1  1  0  0  0
 34 33  1  0  0  0  0
 36 37  1  0  0  0  0
 36 34  1  0  0  0  0
 37 39  2  0  0  0  0
 38 66  1  0  0  0  0
 38 37  1  0  0  0  0
 40 41  1  0  0  0  0
 40 34  1  0  0  0  0
 41 68  1  0  0  0  0
 42 41  1  0  0  0  0
 42 71  1  0  0  0  0
 43 40  2  0  0  0  0
 45  4  1  0  0  0  0
 49  6  1  0  0  0  0
 50  9  1  0  0  0  0
 51  9  1  0  0  0  0
 52 14  1  0  0  0  0
 54 21  1  0  0  0  0
 56 26  1  0  0  0  0
 59 30  1  0  0  0  0
 63 33  1  0  0  0  0
 64 36  1  0  0  0  0
 65 38  1  0  0  0  0
 67 38  1  0  0  0  0
 69 42  1  0  0  0  0
 70 42  1  0  0  0  0
M  END
