71
-1 1
O         8.750628    4.383579    9.664087
C         8.480963    3.415797   10.391786
N         7.133149    3.058229   10.526636
C         6.556940    1.998337   11.334805
C         5.871627    2.576234   12.570032
C         4.842046    3.637361   12.169605
C         5.390666    4.667808   11.176103
H         4.550620    5.245509   10.754863
C         6.121865    3.953361   10.021400
N         6.301259    5.652583   11.783050
N         6.949458    6.468004   10.931280
C         7.819299    7.177394   11.609221
C         8.758898    8.075082   10.912683
C         9.460380    7.561411    9.787115
N        10.329459    8.274168    9.083272
C         8.980599    9.384469   11.329501
C         9.903317   10.154305   10.607392
C        10.519890    9.519700    9.501446
N        11.371815   10.428144    8.924320
H        11.940653   10.229592    8.114151
C        11.312479   11.609182    9.625468
C        10.426665   11.491786   10.664903
C         6.721345    5.862354   13.061187
C         7.729507    6.843245   12.994927
C         8.369400    7.158481   14.215667
N         9.405528    8.036277   14.294612
N         7.943335    6.596511   15.345431
C         6.930989    5.719613   15.270284
N         6.287513    5.297417   14.201126
C         9.552916    2.669665   11.014227
C         9.588043    1.614286   11.937484
S         9.613663   -0.556833   11.185213
C         8.207062   -0.854879   10.061596
C         8.044458    0.062275    8.825636
H         7.726777    1.065810    9.144004
N         7.050621   -0.480827    7.920921
C         5.725924   -0.245130    7.963983
C         4.921944   -0.896775    6.848976
O         5.169109    0.435545    8.812513
C         9.331782    0.159532    8.000004
N        10.169005    1.137234    8.368280
C        11.490000    1.275406    7.819507
O         9.526536   -0.611405    7.063333
H         7.311474    1.259081   11.603584
H         5.823015    1.466318   10.705969
H         6.621946    3.016142   13.244531
H         5.367153    1.773085   13.131453
H         4.424256    4.130674   13.057009
H         4.010576    3.139089   11.642507
H         6.598432    4.682511    9.358844
H         5.370700    3.374256    9.454957
H         9.291741    6.512704    9.505319
H         8.443540    9.793030   12.189964
H        11.917181   12.462399    9.325320
H        10.177308   12.269113   11.383292
H         9.927178    8.247545   13.454253
H         9.906004    8.041272   15.173493
H         6.606563    5.295402   16.228147
H        10.518615    3.057347   10.675243
H         8.779379    1.444767   12.646594
H        10.565319    1.430612   12.393364
H         7.249840   -0.826117   10.605223
H         8.328770   -1.882914    9.684037
H         7.467570   -1.013032    7.160986
H         4.423331   -0.104941    6.271795
H         4.135899   -1.516198    7.303342
H         5.525536   -1.514406    6.169762
H         9.950848    1.653671    9.226733
H        11.522204    0.770176    6.845465
H        12.249289    0.816683    8.475882
H        11.733906    2.339807    7.686951
