76
-1 1
O        -1.906256    6.447777   -5.353342
C        -2.613330    5.459192   -5.399645
O        -3.801866    5.523015   -6.091172
C        -4.515071    4.282537   -6.039424
H        -5.496071    4.511762   -5.603269
C        -4.699444    3.799616   -7.466615
C        -3.954673    2.723062   -7.973642
C        -3.013930    1.977371   -7.054839
C        -3.538693    1.947172   -5.626824
C        -3.731633    3.358736   -5.077438
H        -4.301985    3.271507   -4.132326
C        -4.080321    2.355034   -9.327413
C        -3.277775    1.218635   -9.910471
C        -4.954237    3.066510  -10.144749
C        -5.688670    4.124177   -9.624260
O        -6.497201    4.897706  -10.450114
C        -7.488510    4.360605  -11.184660
C        -8.282053    5.399491  -11.881677
C        -8.069779    6.717813  -11.747695
C        -8.816627    7.805425  -12.390358
C        -8.465086    9.137463  -12.107850
C        -9.137865   10.203058  -12.683558
C       -10.196532    9.968780  -13.571030
O       -10.798459   11.060801  -14.087096
C       -11.871166   10.893805  -14.971432
C       -10.563718    8.649704  -13.867666
C        -9.876523    7.591087  -13.280087
O        -7.717003    3.182926  -11.273625
C        -5.586474    4.521454   -8.291693
C        -6.357941    5.724044   -7.811104
C        -2.473976    4.144785   -4.833821
C        -1.462252    3.787907   -3.956901
S        -2.000142    4.179264   -1.693724
C        -2.645960    5.838755   -2.067933
C        -4.145175    5.892384   -2.434622
H        -4.406432    4.980320   -2.991493
N        -4.404768    7.027880   -3.285405
C        -5.428110    7.048601   -4.172167
C        -5.380614    8.194392   -5.161351
O        -6.295747    6.188051   -4.206170
C        -5.029133    5.919870   -1.178085
N        -4.975602    4.755738   -0.475715
C        -5.621146    4.602960    0.798908
O        -5.692818    6.883847   -0.846131
H        -2.026769    2.474199   -7.060450
H        -2.853121    0.953053   -7.420600
H        -2.845670    1.395185   -4.972109
H        -4.498614    1.401903   -5.604079
H        -2.197115    1.363911   -9.755582
H        -3.455030    1.127222  -10.991357
H        -3.542748    0.254188   -9.447258
H        -5.069426    2.798725  -11.195767
H        -9.074938    4.987558  -12.509915
H        -7.254723    7.025570  -11.085273
H        -7.643067    9.335592  -11.415363
H        -8.864080   11.235404  -12.460614
H       -12.203774   11.899533  -15.256392
H       -12.714596   10.360869  -14.498270
H       -11.571653   10.346692  -15.882723
H       -11.382822    8.433799  -14.553682
H       -10.181467    6.572245  -13.527251
H        -7.315763    5.815118   -8.340685
H        -5.778958    6.640678   -8.006754
H        -6.551411    5.704844   -6.730920
H        -0.580228    4.430988   -3.918730
H        -1.273737    2.731458   -3.753679
H        -2.080092    6.224940   -2.927870
H        -2.451710    6.509137   -1.214858
H        -3.645051    7.679523   -3.430368
H        -4.661967    7.918087   -5.947879
H        -5.049919    9.132563   -4.692339
H        -6.374955    8.330218   -5.603372
H        -4.244252    4.095309   -0.750406
H        -6.316516    5.442850    0.927981
H        -4.900070    4.615599    1.634918
H        -6.188342    3.659262    0.847339
