-1 1
 OpenBabel05192410563D

 73 76  0  0  1  0  0  0  0  0999 V2000
   -1.1936   -1.9951   -1.1641 O   0  0  0  0  0  0  0  0  0  0  0  0
   -0.0970   -1.6597   -0.6749 C   0  0  0  0  0  0  0  0  0  0  0  0
    0.8529   -1.1161   -1.5511 O   0  0  0  0  0  0  0  0  0  0  0  0
    1.9255   -0.6050   -0.7868 C   0  0  1  0  0  0  0  0  0  0  0  0
    2.8537   -0.8216   -1.3462 H   0  0  0  0  0  0  0  0  0  0  0  0
    1.8133    0.9279   -0.6211 C   0  0  2  0  0  0  0  0  0  0  0  0
    1.6688    1.5902   -2.0218 C   0  0  2  0  0  0  0  0  0  0  0  0
    2.2526    0.9681   -2.7253 H   0  0  0  0  0  0  0  0  0  0  0  0
    2.2937    2.9782   -2.1695 C   0  0  2  0  0  0  0  0  0  0  0  0
    2.2825    3.2559   -3.2334 H   0  0  0  0  0  0  0  0  0  0  0  0
    3.7288    3.0894   -1.6268 C   0  0  0  0  0  0  0  0  0  0  0  0
    4.1266    1.9234   -0.7204 C   0  0  0  0  0  0  0  0  0  0  0  0
    3.0081    1.4746    0.2309 C   0  0  2  0  0  0  0  0  0  0  0  0
    3.5537    0.3747    1.1746 C   0  0  0  0  0  0  0  0  0  0  0  0
    2.4354   -0.5131    1.7091 C   0  0  0  0  0  0  0  0  0  0  0  0
    1.8783   -1.3610    0.5612 C   0  0  1  0  0  0  0  0  0  0  0  0
    2.5305   -2.2586    0.4796 H   0  0  0  0  0  0  0  0  0  0  0  0
    2.5490    2.6455    1.1164 C   0  0  0  0  0  0  0  0  0  0  0  0
    1.4224    3.9254   -1.5099 O   0  0  0  0  0  0  0  0  0  0  0  0
    1.4173    5.1820   -1.9201 C   0  0  0  0  0  0  0  0  0  0  0  0
    0.4398    6.0147   -1.1404 C   0  0  0  0  0  0  0  0  0  0  0  0
   -0.3820    5.4787   -0.1483 C   0  0  0  0  0  0  0  0  0  0  0  0
   -1.2559    6.3373    0.5184 C   0  0  0  0  0  0  0  0  0  0  0  0
   -1.3491    7.6406    0.2606 N   0  0  0  0  0  0  0  0  0  0  0  0
   -0.5619    8.1425   -0.6899 C   0  0  0  0  0  0  0  0  0  0  0  0
    0.3457    7.3780   -1.4190 C   0  0  0  0  0  0  0  0  0  0  0  0
    2.1072    5.6264   -2.8045 O   0  0  0  0  0  0  0  0  0  0  0  0
    0.2211    1.6107   -2.5181 C   0  0  0  0  0  0  0  0  0  0  0  0
    0.4243   -1.7276    0.6036 C   0  0  2  0  0  3  0  0  0  0  0  0
   -0.2891   -2.3343    1.7356 C   0  0  0  0  0  0  0  0  0  0  0  0
    0.0999   -4.1331    2.1120 S   0  0  0  0  0  0  0  0  0  0  0  0
   -0.1010   -4.9243    0.4898 C   0  0  0  0  0  0  0  0  0  0  0  0
   -1.5146   -5.4205    0.1588 C   0  0  2  0  0  0  0  0  0  0  0  0
   -1.4358   -6.0466   -0.7541 H   0  0  0  0  0  0  0  0  0  0  0  0
   -2.3720   -4.2797   -0.1415 N   0  0  0  0  0  0  0  0  0  0  0  0
   -3.6299   -4.3274   -0.6211 C   0  0  0  0  0  0  0  0  0  0  0  0
   -4.1789   -2.9997   -1.1013 C   0  0  0  0  0  0  0  0  0  0  0  0
   -4.3325   -5.3415   -0.6449 O   0  0  0  0  0  0  0  0  0  0  0  0
   -1.9424   -6.4210    1.2576 C   0  0  0  0  0  0  0  0  0  0  0  0
   -3.2509   -6.4687    1.5873 N   0  0  0  0  0  0  0  0  0  0  0  0
   -3.7158   -7.4464    2.5348 C   0  0  0  0  0  0  0  0  0  0  0  0
   -1.1046   -7.1548    1.7593 O   0  0  0  0  0  0  0  0  0  0  0  0
    0.8823    1.1064   -0.0570 H   0  0  0  0  0  0  0  0  0  0  0  0
    3.8240    4.0444   -1.0894 H   0  0  0  0  0  0  0  0  0  0  0  0
    4.4271    3.1571   -2.4745 H   0  0  0  0  0  0  0  0  0  0  0  0
    5.0243    2.1963   -0.1399 H   0  0  0  0  0  0  0  0  0  0  0  0
    4.4168    1.0572   -1.3395 H   0  0  0  0  0  0  0  0  0  0  0  0
    4.1201    0.8580    1.9887 H   0  0  0  0  0  0  0  0  0  0  0  0
    4.2776   -0.2621    0.6355 H   0  0  0  0  0  0  0  0  0  0  0  0
    1.6330    0.1079    2.1422 H   0  0  0  0  0  0  0  0  0  0  0  0
    2.7980   -1.1621    2.5209 H   0  0  0  0  0  0  0  0  0  0  0  0
    2.0325    3.4283    0.5498 H   0  0  0  0  0  0  0  0  0  0  0  0
    3.4119    3.1037    1.6285 H   0  0  0  0  0  0  0  0  0  0  0  0
    1.8533    2.2864    1.8904 H   0  0  0  0  0  0  0  0  0  0  0  0
   -0.3403    4.4164    0.0949 H   0  0  0  0  0  0  0  0  0  0  0  0
   -1.9140    5.9455    1.3012 H   0  0  0  0  0  0  0  0  0  0  0  0
   -0.6569    9.2164   -0.8853 H   0  0  0  0  0  0  0  0  0  0  0  0
    0.9771    7.8167   -2.1932 H   0  0  0  0  0  0  0  0  0  0  0  0
   -0.4056    2.2188   -1.8486 H   0  0  0  0  0  0  0  0  0  0  0  0
   -0.1848    0.5934   -2.5421 H   0  0  0  0  0  0  0  0  0  0  0  0
    0.1587    2.0487   -3.5283 H   0  0  0  0  0  0  0  0  0  0  0  0
   -1.3765   -2.2648    1.5905 H   0  0  0  0  0  0  0  0  0  0  0  0
   -0.0497   -1.8604    2.7028 H   0  0  0  0  0  0  0  0  0  0  0  0
    0.5699   -5.7906    0.5006 H   0  0  0  0  0  0  0  0  0  0  0  0
    0.2513   -4.2223   -0.2820 H   0  0  0  0  0  0  0  0  0  0  0  0
   -1.8685   -3.4014   -0.3903 H   0  0  0  0  0  0  0  0  0  0  0  0
   -4.7887   -3.1835   -1.9959 H   0  0  0  0  0  0  0  0  0  0  0  0
   -3.3853   -2.2696   -1.3079 H   0  0  0  0  0  0  0  0  0  0  0  0
   -4.8472   -2.6029   -0.3212 H   0  0  0  0  0  0  0  0  0  0  0  0
   -3.9002   -6.0891    0.8895 H   0  0  0  0  0  0  0  0  0  0  0  0
   -3.7501   -8.4677    2.1127 H   0  0  0  0  0  0  0  0  0  0  0  0
   -4.7251   -7.1743    2.8745 H   0  0  0  0  0  0  0  0  0  0  0  0
   -3.0405   -7.4738    3.4012 H   0  0  0  0  0  0  0  0  0  0  0  0
  1  2  2  0  0  0  0
  2 29  1  0  0  0  0
  3  4  1  0  0  0  0
  3  2  1  0  0  0  0
  4  5  1  6  0  0  0
  4  6  1  0  0  0  0
  4 16  1  0  0  0  0
  6 43  1  1  0  0  0
  6 13  1  0  0  0  0
  7  8  1  6  0  0  0
  7  6  1  0  0  0  0
  9 10  1  6  0  0  0
  9  7  1  0  0  0  0
  9 11  1  0  0  0  0
  9 19  1  0  0  0  0
 11 44  1  0  0  0  0
 11 12  1  0  0  0  0
 12 46  1  0  0  0  0
 12 13  1  0  0  0  0
 13 18  1  1  0  0  0
 13 14  1  0  0  0  0
 14 15  1  0  0  0  0
 14 48  1  0  0  0  0
 15 50  1  0  0  0  0
 15 51  1  0  0  0  0
 16 17  1  6  0  0  0
 16 29  1  0  0  0  0
 16 15  1  0  0  0  0
 18 53  1  0  0  0  0
 18 54  1  0  0  0  0
 20 19  1  0  0  0  0
 20 21  1  0  0  0  0
 21 22  1  0  0  0  0
 22 55  1  0  0  0  0
 22 23  2  0  0  0  0
 23 56  1  0  0  0  0
 24 23  1  0  0  0  0
 25 24  2  0  0  0  0
 26 21  2  0  0  0  0
 26 25  1  0  0  0  0
 27 20  2  0  0  0  0
 28  7  1  0  0  0  0
 28 59  1  0  0  0  0
 29 30  1  6  0  0  0
 30 31  1  0  0  0  0
 30 63  1  0  0  0  0
 32 64  1  0  0  0  0
 32 31  1  0  0  0  0
 33 34  1  6  0  0  0
 33 32  1  0  0  0  0
 33 39  1  0  0  0  0
 35 33  1  0  0  0  0
 36 35  1  0  0  0  0
 37 36  1  0  0  0  0
 37 69  1  0  0  0  0
 38 36  2  0  0  0  0
 39 40  1  0  0  0  0
 39 42  2  0  0  0  0
 40 41  1  0  0  0  0
 41 72  1  0  0  0  0
 41 73  1  0  0  0  0
 45 11  1  0  0  0  0
 47 12  1  0  0  0  0
 49 14  1  0  0  0  0
 52 18  1  0  0  0  0
 57 25  1  0  0  0  0
 58 26  1  0  0  0  0
 60 28  1  0  0  0  0
 61 28  1  0  0  0  0
 62 30  1  0  0  0  0
 65 32  1  0  0  0  0
 66 35  1  0  0  0  0
 67 37  1  0  0  0  0
 68 37  1  0  0  0  0
 70 40  1  0  0  0  0
 71 41  1  0  0  0  0
M  END
