-1 1
 OpenBabel05232414493D

 73 75  0  0  1  0  0  0  0  0999 V2000
   -8.6644    1.6694   -8.4399 O   0  0  0  0  0  0  0  0  0  0  0  0
   -7.4928    1.3754   -8.4952 C   0  0  0  0  0  0  0  0  0  0  0  0
   -6.8231    1.4837   -9.7122 O   0  0  0  0  0  0  0  0  0  0  0  0
   -5.4278    1.3064   -9.5327 C   0  0  1  0  0  0  0  0  0  0  0  0
   -5.0777    0.6855  -10.3745 H   0  0  0  0  0  0  0  0  0  0  0  0
   -4.6864    2.6584   -9.5675 C   0  0  2  0  0  0  0  0  0  0  0  0
   -5.0264    3.4048  -10.8908 C   0  0  2  0  0  0  0  0  0  0  0  0
   -5.1499    2.6265  -11.6661 H   0  0  0  0  0  0  0  0  0  0  0  0
   -3.9183    4.2967  -11.4517 C   0  0  2  0  0  0  0  0  0  0  0  0
   -4.2127    4.6292  -12.4576 H   0  0  0  0  0  0  0  0  0  0  0  0
   -2.5373    3.6234  -11.5194 C   0  0  0  0  0  0  0  0  0  0  0  0
   -2.4481    2.3437  -10.6876 C   0  0  0  0  0  0  0  0  0  0  0  0
   -3.1515    2.4453   -9.3266 C   0  0  2  0  0  0  0  0  0  0  0  0
   -2.8918    1.1443   -8.5280 C   0  0  0  0  0  0  0  0  0  0  0  0
   -3.9699    0.8999   -7.4788 C   0  0  0  0  0  0  0  0  0  0  0  0
   -5.2739    0.5514   -8.1942 C   0  0  1  0  0  0  0  0  0  0  0  0
   -5.2239   -0.5203   -8.4551 H   0  0  0  0  0  0  0  0  0  0  0  0
   -2.5722    3.6079   -8.5027 C   0  0  0  0  0  0  0  0  0  0  0  0
   -3.8684    5.4935  -10.6424 O   0  0  0  0  0  0  0  0  0  0  0  0
   -3.4155    6.6115  -11.1855 C   0  0  0  0  0  0  0  0  0  0  0  0
   -3.4541    7.7552  -10.2128 C   0  0  0  0  0  0  0  0  0  0  0  0
   -3.9605    7.6262   -8.9192 C   0  0  0  0  0  0  0  0  0  0  0  0
   -3.9516    8.7498   -8.0928 C   0  0  0  0  0  0  0  0  0  0  0  0
   -3.4861    9.9389   -8.4706 N   0  0  0  0  0  0  0  0  0  0  0  0
   -3.0065   10.0527   -9.7083 C   0  0  0  0  0  0  0  0  0  0  0  0
   -2.9677    8.9982  -10.6173 C   0  0  0  0  0  0  0  0  0  0  0  0
   -3.0128    6.7178  -12.3175 O   0  0  0  0  0  0  0  0  0  0  0  0
   -6.3375    4.1906  -10.8108 C   0  0  0  0  0  0  0  0  0  0  0  0
   -6.5648    0.8932   -7.5083 C   0  0  2  0  0  3  0  0  0  0  0  0
   -6.9162    0.7077   -6.1858 C   0  0  0  0  0  3  0  0  0  0  0  0
   -7.9814   -1.3610   -5.5389 S   0  0  0  0  0  1  0  0  0  0  0  0
   -6.6835   -2.6048   -5.8188 C   0  0  0  0  0  0  0  0  0  0  0  0
   -6.2456   -2.8048   -7.2874 C   0  0  2  0  0  0  0  0  0  0  0  0
   -5.3778   -2.1573   -7.5047 H   0  0  0  0  0  0  0  0  0  0  0  0
   -7.3218   -2.4283   -8.1892 N   0  0  0  0  0  0  0  0  0  0  0  0
   -7.1530   -2.0488   -9.4699 C   0  0  0  0  0  0  0  0  0  0  0  0
   -8.3486   -1.4112  -10.1357 C   0  0  0  0  0  0  0  0  0  0  0  0
   -6.1002   -2.2123  -10.0954 O   0  0  0  0  0  0  0  0  0  0  0  0
   -5.7616   -4.2583   -7.5223 C   0  0  0  0  0  0  0  0  0  0  0  0
   -5.1873   -4.4448   -8.7362 N   0  0  0  0  0  0  0  0  0  0  0  0
   -4.7374   -5.7346   -9.1822 C   0  0  0  0  0  0  0  0  0  0  0  0
   -5.8563   -5.1348   -6.6798 O   0  0  0  0  0  0  0  0  0  0  0  0
   -5.0818    3.2524   -8.7252 H   0  0  0  0  0  0  0  0  0  0  0  0
   -1.7795    4.3501  -11.1915 H   0  0  0  0  0  0  0  0  0  0  0  0
   -2.2988    3.4017  -12.5703 H   0  0  0  0  0  0  0  0  0  0  0  0
   -1.3893    2.0718  -10.5399 H   0  0  0  0  0  0  0  0  0  0  0  0
   -2.9010    1.5066  -11.2458 H   0  0  0  0  0  0  0  0  0  0  0  0
   -1.8877    1.2041   -8.0760 H   0  0  0  0  0  0  0  0  0  0  0  0
   -2.8694    0.2780   -9.2119 H   0  0  0  0  0  0  0  0  0  0  0  0
   -4.1075    1.7960   -6.8508 H   0  0  0  0  0  0  0  0  0  0  0  0
   -3.6812    0.0847   -6.7972 H   0  0  0  0  0  0  0  0  0  0  0  0
   -2.8132    4.5893   -8.9264 H   0  0  0  0  0  0  0  0  0  0  0  0
   -1.4748    3.5225   -8.4350 H   0  0  0  0  0  0  0  0  0  0  0  0
   -2.9724    3.5849   -7.4773 H   0  0  0  0  0  0  0  0  0  0  0  0
   -4.3532    6.6713   -8.5680 H   0  0  0  0  0  0  0  0  0  0  0  0
   -4.3434    8.6797   -7.0725 H   0  0  0  0  0  0  0  0  0  0  0  0
   -2.6301   11.0404   -9.9969 H   0  0  0  0  0  0  0  0  0  0  0  0
   -2.5698    9.1215  -11.6258 H   0  0  0  0  0  0  0  0  0  0  0  0
   -6.2697    4.9732  -10.0403 H   0  0  0  0  0  0  0  0  0  0  0  0
   -7.1690    3.5254  -10.5542 H   0  0  0  0  0  0  0  0  0  0  0  0
   -6.5565    4.6836  -11.7723 H   0  0  0  0  0  0  0  0  0  0  0  0
   -7.8152    1.2118   -5.8284 H   0  0  0  0  0  0  0  0  0  0  0  0
   -6.1387    0.5454   -5.4364 H   0  0  0  0  0  0  0  0  0  0  0  0
   -7.0499   -3.5693   -5.4432 H   0  0  0  0  0  0  0  0  0  0  0  0
   -5.7835   -2.3681   -5.2308 H   0  0  0  0  0  0  0  0  0  0  0  0
   -8.1168   -2.0326   -7.6657 H   0  0  0  0  0  0  0  0  0  0  0  0
   -8.0340   -0.4345  -10.5278 H   0  0  0  0  0  0  0  0  0  0  0  0
   -9.1942   -1.2593   -9.4535 H   0  0  0  0  0  0  0  0  0  0  0  0
   -8.6559   -2.0410  -10.9833 H   0  0  0  0  0  0  0  0  0  0  0  0
   -5.2611   -3.6634   -9.3975 H   0  0  0  0  0  0  0  0  0  0  0  0
   -3.6941   -5.6948   -9.5365 H   0  0  0  0  0  0  0  0  0  0  0  0
   -5.3621   -6.1266  -10.0034 H   0  0  0  0  0  0  0  0  0  0  0  0
   -4.7979   -6.4310   -8.3356 H   0  0  0  0  0  0  0  0  0  0  0  0
  2  1  2  0  0  0  0
  2 29  1  0  0  0  0
  3  4  1  0  0  0  0
  3  2  1  0  0  0  0
  4  5  1  6  0  0  0
  4 16  1  0  0  0  0
  6  4  1  0  0  0  0
  6 13  1  0  0  0  0
  6 43  1  1  0  0  0
  7  8  1  6  0  0  0
  7 28  1  0  0  0  0
  7  6  1  0  0  0  0
  9 10  1  6  0  0  0
  9  7  1  0  0  0  0
  9 19  1  0  0  0  0
 11  9  1  0  0  0  0
 11 44  1  0  0  0  0
 11 12  1  0  0  0  0
 12 46  1  0  0  0  0
 12 13  1  0  0  0  0
 13 14  1  0  0  0  0
 13 18  1  1  0  0  0
 14 48  1  0  0  0  0
 14 15  1  0  0  0  0
 15 50  1  0  0  0  0
 15 51  1  0  0  0  0
 16 17  1  6  0  0  0
 16 29  1  0  0  0  0
 16 15  1  0  0  0  0
 18 53  1  0  0  0  0
 18 54  1  0  0  0  0
 20 19  1  0  0  0  0
 20 21  1  0  0  0  0
 21 22  1  0  0  0  0
 22 55  1  0  0  0  0
 22 23  2  0  0  0  0
 23 56  1  0  0  0  0
 24 23  1  0  0  0  0
 25 24  2  0  0  0  0
 26 21  2  0  0  0  0
 26 25  1  0  0  0  0
 27 20  2  0  0  0  0
 28 60  1  0  0  0  0
 28 59  1  0  0  0  0
 29 30  1  6  0  0  0
 30 62  1  0  0  0  0
 30 63  1  0  0  0  0
 32 31  1  0  0  0  0
 32 64  1  0  0  0  0
 32 65  1  0  0  0  0
 33 34  1  6  0  0  0
 33 32  1  0  0  0  0
 35 66  1  0  0  0  0
 35 33  1  0  0  0  0
 36 35  1  0  0  0  0
 37 36  1  0  0  0  0
 37 68  1  0  0  0  0
 38 36  2  0  0  0  0
 39 33  1  0  0  0  0
 39 42  2  0  0  0  0
 40 39  1  0  0  0  0
 41 40  1  0  0  0  0
 41 73  1  0  0  0  0
 45 11  1  0  0  0  0
 47 12  1  0  0  0  0
 49 14  1  0  0  0  0
 52 18  1  0  0  0  0
 57 25  1  0  0  0  0
 58 26  1  0  0  0  0
 61 28  1  0  0  0  0
 67 37  1  0  0  0  0
 69 37  1  0  0  0  0
 70 40  1  0  0  0  0
 71 41  1  0  0  0  0
 72 41  1  0  0  0  0
M  END
