-1 1
 OpenBabel05232413493D

 74 76  0  0  1  0  0  0  0  0999 V2000
    2.5761    0.5389    1.7555 O   0  0  0  0  0  0  0  0  0  0  0  0
    1.4032    0.5739    1.5015 C   0  0  0  0  0  0  0  0  0  0  0  0
    0.9083    1.3431    0.5055 O   0  0  0  0  0  0  0  0  0  0  0  0
   -0.5288    1.2967    0.4439 C   0  0  1  0  0  0  0  0  0  0  0  0
   -0.8919    2.2230    0.9232 H   0  0  0  0  0  0  0  0  0  0  0  0
   -0.9207    1.3341   -1.0332 C   0  0  2  0  0  0  0  0  0  0  0  0
   -2.2982    1.9975   -1.2589 C   0  0  1  0  0  0  0  0  0  0  0  0
   -2.2018    3.0341   -0.8934 H   0  0  0  0  0  0  0  0  0  0  0  0
   -2.5546    2.1011   -2.7653 C   0  0  2  0  0  0  0  0  0  0  0  0
   -3.5037    2.6262   -2.9416 H   0  0  0  0  0  0  0  0  0  0  0  0
   -2.5245    0.7455   -3.4830 C   0  0  0  0  0  0  0  0  0  0  0  0
   -1.8998   -0.3907   -2.6667 C   0  0  0  0  0  0  0  0  0  0  0  0
   -0.6730   -0.0110   -1.8106 C   0  0  2  0  0  0  0  0  0  0  0  0
   -0.4011   -1.1826   -0.8382 C   0  0  0  0  0  0  0  0  0  0  0  0
   -1.2946   -1.1458    0.3933 C   0  0  0  0  0  0  0  0  0  0  0  0
   -0.9537    0.0632    1.2770 C   0  0  1  0  0  0  0  0  0  0  0  0
   -1.8143    0.2988    1.9179 H   0  0  0  0  0  0  0  0  0  0  0  0
    0.5464    0.1676   -2.7257 C   0  0  0  0  0  0  0  0  0  0  0  0
   -1.5100    2.9085   -3.3500 O   0  0  0  0  0  0  0  0  0  0  0  0
   -1.6479    4.2307   -3.3481 C   0  0  0  0  0  0  0  0  0  0  0  0
   -0.4155    4.9217   -3.8472 C   0  0  0  0  0  0  0  0  0  0  0  0
   -0.4873    6.3020   -4.0519 C   0  0  0  0  0  0  0  0  0  0  0  0
    0.6420    6.9697   -4.4994 C   0  0  0  0  0  0  0  0  0  0  0  0
    0.5817    8.2877   -4.7041 F   0  0  0  0  0  0  0  0  0  0  0  0
    1.8400    6.3049   -4.7392 C   0  0  0  0  0  0  0  0  0  0  0  0
    1.9007    4.9295   -4.5233 C   0  0  0  0  0  0  0  0  0  0  0  0
    0.7782    4.2323   -4.0813 C   0  0  0  0  0  0  0  0  0  0  0  0
   -2.6415    4.8147   -2.9925 O   0  0  0  0  0  0  0  0  0  0  0  0
   -3.5122    1.4146   -0.5313 C   0  0  0  0  0  0  0  0  0  0  0  0
    0.2756   -0.1696    2.1193 C   0  0  0  0  0  0  0  0  0  0  0  0
    0.4092   -0.9277    3.2088 C   0  0  0  0  0  0  0  0  0  0  0  0
   -2.2531   -3.4536    3.0553 S   0  0  0  0  0  1  0  0  0  0  0  0
   -1.4983   -4.6825    4.1800 C   0  0  0  0  0  0  0  0  0  0  0  0
    0.0289   -4.5482    4.3197 C   0  0  2  0  0  0  0  0  0  0  0  0
    0.2687   -3.6792    4.9624 H   0  0  0  0  0  0  0  0  0  0  0  0
    0.5965   -4.3040    2.9988 N   0  0  0  0  0  0  0  0  0  0  0  0
    1.7927   -3.7330    2.7690 C   0  0  0  0  0  0  0  0  0  0  0  0
    2.0442   -3.2749    1.3477 C   0  0  0  0  0  0  0  0  0  0  0  0
    2.6666   -3.5903    3.6270 O   0  0  0  0  0  0  0  0  0  0  0  0
    0.6342   -5.7944    5.0098 C   0  0  0  0  0  0  0  0  0  0  0  0
    1.9608   -5.6877    5.2761 N   0  0  0  0  0  0  0  0  0  0  0  0
    2.7135   -6.7607    5.8632 C   0  0  0  0  0  0  0  0  0  0  0  0
   -0.0351   -6.7650    5.3219 O   0  0  0  0  0  0  0  0  0  0  0  0
   -0.2149    2.0639   -1.4561 H   0  0  0  0  0  0  0  0  0  0  0  0
   -1.9812    0.8930   -4.4281 H   0  0  0  0  0  0  0  0  0  0  0  0
   -3.5499    0.4621   -3.7638 H   0  0  0  0  0  0  0  0  0  0  0  0
   -1.6075   -1.2051   -3.3491 H   0  0  0  0  0  0  0  0  0  0  0  0
   -2.6660   -0.8269   -2.0104 H   0  0  0  0  0  0  0  0  0  0  0  0
    0.6562   -1.1668   -0.5258 H   0  0  0  0  0  0  0  0  0  0  0  0
   -0.5368   -2.1321   -1.3822 H   0  0  0  0  0  0  0  0  0  0  0  0
   -1.2146   -2.0604    1.0018 H   0  0  0  0  0  0  0  0  0  0  0  0
   -2.3520   -1.0938    0.0912 H   0  0  0  0  0  0  0  0  0  0  0  0
    0.3542    0.9244   -3.5031 H   0  0  0  0  0  0  0  0  0  0  0  0
    0.8006   -0.7803   -3.2273 H   0  0  0  0  0  0  0  0  0  0  0  0
    1.4189    0.4915   -2.1384 H   0  0  0  0  0  0  0  0  0  0  0  0
   -1.4171    6.8380   -3.8568 H   0  0  0  0  0  0  0  0  0  0  0  0
    2.7063    6.8714   -5.0847 H   0  0  0  0  0  0  0  0  0  0  0  0
    2.8373    4.3968   -4.6982 H   0  0  0  0  0  0  0  0  0  0  0  0
    0.8240    3.1581   -3.9034 H   0  0  0  0  0  0  0  0  0  0  0  0
   -3.3361    1.3620    0.5520 H   0  0  0  0  0  0  0  0  0  0  0  0
   -3.7824    0.4049   -0.8663 H   0  0  0  0  0  0  0  0  0  0  0  0
   -4.3875    2.0633   -0.6899 H   0  0  0  0  0  0  0  0  0  0  0  0
   -0.4418   -1.5083    3.5927 H   0  0  0  0  0  0  0  0  0  0  0  0
    1.3909   -1.0214    3.6832 H   0  0  0  0  0  0  0  0  0  0  0  0
   -1.7129   -5.7031    3.8308 H   0  0  0  0  0  0  0  0  0  0  0  0
   -1.9244   -4.6106    5.1911 H   0  0  0  0  0  0  0  0  0  0  0  0
   -0.1685   -4.0942    2.3371 H   0  0  0  0  0  0  0  0  0  0  0  0
    1.1500   -3.3346    0.7129 H   0  0  0  0  0  0  0  0  0  0  0  0
    2.8413   -3.8962    0.9133 H   0  0  0  0  0  0  0  0  0  0  0  0
    2.4086   -2.2384    1.3794 H   0  0  0  0  0  0  0  0  0  0  0  0
    2.4392   -4.8697    4.8836 H   0  0  0  0  0  0  0  0  0  0  0  0
    3.4494   -7.1826    5.1565 H   0  0  0  0  0  0  0  0  0  0  0  0
    2.0107   -7.5540    6.1502 H   0  0  0  0  0  0  0  0  0  0  0  0
    3.2584   -6.4269    6.7622 H   0  0  0  0  0  0  0  0  0  0  0  0
  2  1  2  0  0  0  0
  2 30  1  0  0  0  0
  3  2  1  0  0  0  0
  4  3  1  0  0  0  0
  4  5  1  1  0  0  0
  4 16  1  0  0  0  0
  6 44  1  6  0  0  0
  6  4  1  0  0  0  0
  7  6  1  0  0  0  0
  7  8  1  1  0  0  0
  7 29  1  0  0  0  0
  9 10  1  6  0  0  0
  9  7  1  0  0  0  0
 11  9  1  0  0  0  0
 11 12  1  0  0  0  0
 12 48  1  0  0  0  0
 12 13  1  0  0  0  0
 13 18  1  6  0  0  0
 13  6  1  0  0  0  0
 13 14  1  0  0  0  0
 14 49  1  0  0  0  0
 14 15  1  0  0  0  0
 15 51  1  0  0  0  0
 15 16  1  0  0  0  0
 16 17  1  1  0  0  0
 16 30  1  0  0  0  0
 18 55  1  0  0  0  0
 19 20  1  0  0  0  0
 19  9  1  0  0  0  0
 20 28  2  0  0  0  0
 21 20  1  0  0  0  0
 22 56  1  0  0  0  0
 22 21  1  0  0  0  0
 23 22  2  0  0  0  0
 24 23  1  0  0  0  0
 25 26  2  0  0  0  0
 25 23  1  0  0  0  0
 26 27  1  0  0  0  0
 27 59  1  0  0  0  0
 27 21  2  0  0  0  0
 29 60  1  0  0  0  0
 30 31  2  0  0  0  0
 31 63  1  0  0  0  0
 31 64  1  0  0  0  0
 32 33  1  0  0  0  0
 33 34  1  0  0  0  0
 33 66  1  0  0  0  0
 34 35  1  1  0  0  0
 34 40  1  0  0  0  0
 36 34  1  0  0  0  0
 37 36  1  0  0  0  0
 37 39  2  0  0  0  0
 38 70  1  0  0  0  0
 38 37  1  0  0  0  0
 40 41  1  0  0  0  0
 40 43  2  0  0  0  0
 41 42  1  0  0  0  0
 42 73  1  0  0  0  0
 42 74  1  0  0  0  0
 45 11  1  0  0  0  0
 46 11  1  0  0  0  0
 47 12  1  0  0  0  0
 50 14  1  0  0  0  0
 52 15  1  0  0  0  0
 53 18  1  0  0  0  0
 54 18  1  0  0  0  0
 57 25  1  0  0  0  0
 58 26  1  0  0  0  0
 61 29  1  0  0  0  0
 62 29  1  0  0  0  0
 65 33  1  0  0  0  0
 67 36  1  0  0  0  0
 68 38  1  0  0  0  0
 69 38  1  0  0  0  0
 71 41  1  0  0  0  0
 72 42  1  0  0  0  0
M  END
