-1 1
 OpenBabel05232414493D

 74 76  0  0  1  0  0  0  0  0999 V2000
   -0.0657    3.6874   -6.2497 O   0  0  0  0  0  0  0  0  0  0  0  0
   -1.2287    4.0070   -6.3805 C   0  0  0  0  0  0  0  0  0  0  0  0
   -1.5648    4.9790   -7.2966 O   0  0  0  0  0  0  0  0  0  0  0  0
   -2.9481    5.3145   -7.2038 C   0  0  1  0  0  0  0  0  0  0  0  0
   -3.0162    6.2569   -6.6277 H   0  0  0  0  0  0  0  0  0  0  0  0
   -3.4477    5.5882   -8.6246 C   0  0  2  0  0  0  0  0  0  0  0  0
   -4.6013    6.6148   -8.6668 C   0  0  1  0  0  0  0  0  0  0  0  0
   -4.1925    7.5497   -8.2466 H   0  0  0  0  0  0  0  0  0  0  0  0
   -4.9423    6.9206  -10.1288 C   0  0  2  0  0  0  0  0  0  0  0  0
   -5.7260    7.6898  -10.1735 H   0  0  0  0  0  0  0  0  0  0  0  0
   -5.3332    5.6764  -10.9381 C   0  0  0  0  0  0  0  0  0  0  0  0
   -4.9932    4.3462  -10.2584 C   0  0  0  0  0  0  0  0  0  0  0  0
   -3.6482    4.2991   -9.5028 C   0  0  2  0  0  0  0  0  0  0  0  0
   -3.6401    3.0175   -8.6381 C   0  0  0  0  0  0  0  0  0  0  0  0
   -4.3803    3.1891   -7.3189 C   0  0  0  0  0  0  0  0  0  0  0  0
   -3.6247    4.1712   -6.4056 C   0  0  1  0  0  0  0  0  0  0  0  0
   -4.3300    4.5945   -5.6700 H   0  0  0  0  0  0  0  0  0  0  0  0
   -2.4996    4.2155  -10.5179 C   0  0  0  0  0  0  0  0  0  0  0  0
   -3.7684    7.4777  -10.7580 O   0  0  0  0  0  0  0  0  0  0  0  0
   -3.5546    8.7858  -10.6746 C   0  0  0  0  0  0  0  0  0  0  0  0
   -2.2098    9.1647  -11.2165 C   0  0  0  0  0  0  0  0  0  0  0  0
   -1.9365   10.5254  -11.3782 C   0  0  0  0  0  0  0  0  0  0  0  0
   -0.6937   10.9029  -11.8619 C   0  0  0  0  0  0  0  0  0  0  0  0
   -0.4253   12.2012  -12.0276 F   0  0  0  0  0  0  0  0  0  0  0  0
    0.2856    9.9671  -12.1775 C   0  0  0  0  0  0  0  0  0  0  0  0
    0.0038    8.6136  -12.0022 C   0  0  0  0  0  0  0  0  0  0  0  0
   -1.2408    8.2056  -11.5267 C   0  0  0  0  0  0  0  0  0  0  0  0
   -4.3404    9.5829  -10.2240 O   0  0  0  0  0  0  0  0  0  0  0  0
   -5.8655    6.3199   -7.8559 C   0  0  0  0  0  0  0  0  0  0  0  0
   -2.4283    3.5482   -5.7329 C   0  0  1  0  0  3  0  0  0  0  0  0
   -2.4289    2.5257   -4.8106 C   0  0  0  0  0  3  0  0  0  0  0  0
   -2.6753    0.3037   -5.8018 S   0  0  0  0  0  1  0  0  0  0  0  0
   -2.5450   -0.7152   -4.2951 C   0  0  0  0  0  0  0  0  0  0  0  0
   -1.2900   -0.4507   -3.4397 C   0  0  2  0  0  0  0  0  0  0  0  0
   -1.4625    0.4213   -2.7815 H   0  0  0  0  0  0  0  0  0  0  0  0
   -0.1574   -0.1430   -4.3004 N   0  0  0  0  0  0  0  0  0  0  0  0
    0.8908    0.6193   -3.9072 C   0  0  0  0  0  0  0  0  0  0  0  0
    1.7025    1.2190   -5.0273 C   0  0  0  0  0  0  0  0  0  0  0  0
    1.1546    0.8368   -2.7245 O   0  0  0  0  0  0  0  0  0  0  0  0
   -1.0083   -1.6509   -2.5034 C   0  0  0  0  0  0  0  0  0  0  0  0
   -0.0162   -1.4178   -1.6101 N   0  0  0  0  0  0  0  0  0  0  0  0
    0.4481   -2.4251   -0.6972 C   0  0  0  0  0  0  0  0  0  0  0  0
   -1.6446   -2.6907   -2.5505 O   0  0  0  0  0  0  0  0  0  0  0  0
   -2.6066    6.1346   -9.0756 H   0  0  0  0  0  0  0  0  0  0  0  0
   -4.8296    5.7551  -11.9129 H   0  0  0  0  0  0  0  0  0  0  0  0
   -6.4127    5.7067  -11.1511 H   0  0  0  0  0  0  0  0  0  0  0  0
   -4.9946    3.5453  -11.0158 H   0  0  0  0  0  0  0  0  0  0  0  0
   -5.7994    4.0827   -9.5585 H   0  0  0  0  0  0  0  0  0  0  0  0
   -2.6032    2.7168   -8.4193 H   0  0  0  0  0  0  0  0  0  0  0  0
   -4.0740    2.1904   -9.2243 H   0  0  0  0  0  0  0  0  0  0  0  0
   -4.4666    2.2192   -6.8065 H   0  0  0  0  0  0  0  0  0  0  0  0
   -5.4078    3.5477   -7.5015 H   0  0  0  0  0  0  0  0  0  0  0  0
   -2.5303    5.0585  -11.2278 H   0  0  0  0  0  0  0  0  0  0  0  0
   -2.5551    3.2788  -11.0963 H   0  0  0  0  0  0  0  0  0  0  0  0
   -1.5334    4.2405   -9.9921 H   0  0  0  0  0  0  0  0  0  0  0  0
   -2.6902   11.2708  -11.1215 H   0  0  0  0  0  0  0  0  0  0  0  0
    1.2532   10.3095  -12.5480 H   0  0  0  0  0  0  0  0  0  0  0  0
    0.7672    7.8686  -12.2341 H   0  0  0  0  0  0  0  0  0  0  0  0
   -1.4619    7.1485  -11.3789 H   0  0  0  0  0  0  0  0  0  0  0  0
   -5.6153    6.1098   -6.8068 H   0  0  0  0  0  0  0  0  0  0  0  0
   -6.4372    5.4621   -8.2341 H   0  0  0  0  0  0  0  0  0  0  0  0
   -6.5319    7.1967   -7.8696 H   0  0  0  0  0  0  0  0  0  0  0  0
   -3.3164    2.3329   -4.2055 H   0  0  0  0  0  0  0  0  0  0  0  0
   -1.4712    2.2577   -4.3616 H   0  0  0  0  0  0  0  0  0  0  0  0
   -2.5472   -1.7751   -4.5840 H   0  0  0  0  0  0  0  0  0  0  0  0
   -3.4239   -0.5747   -3.6480 H   0  0  0  0  0  0  0  0  0  0  0  0
   -0.4596   -0.0462   -5.2788 H   0  0  0  0  0  0  0  0  0  0  0  0
    1.8209    0.5128   -5.8614 H   0  0  0  0  0  0  0  0  0  0  0  0
    2.6844    1.5173   -4.6411 H   0  0  0  0  0  0  0  0  0  0  0  0
    1.1708    2.1082   -5.4111 H   0  0  0  0  0  0  0  0  0  0  0  0
    0.5021   -0.5399   -1.7281 H   0  0  0  0  0  0  0  0  0  0  0  0
    1.4777   -2.7475   -0.9303 H   0  0  0  0  0  0  0  0  0  0  0  0
   -0.2172   -3.2947   -0.7794 H   0  0  0  0  0  0  0  0  0  0  0  0
    0.4320   -2.0627    0.3442 H   0  0  0  0  0  0  0  0  0  0  0  0
  2  1  2  0  0  0  0
  2 30  1  0  0  0  0
  3  4  1  0  0  0  0
  3  2  1  0  0  0  0
  4  5  1  1  0  0  0
  4 16  1  0  0  0  0
  6 44  1  6  0  0  0
  6  4  1  0  0  0  0
  7  6  1  0  0  0  0
  7  8  1  1  0  0  0
  7 29  1  0  0  0  0
  9 10  1  6  0  0  0
  9  7  1  0  0  0  0
 11 12  1  0  0  0  0
 11  9  1  0  0  0  0
 12 48  1  0  0  0  0
 12 13  1  0  0  0  0
 13 18  1  6  0  0  0
 13 14  1  0  0  0  0
 13  6  1  0  0  0  0
 14 49  1  0  0  0  0
 14 15  1  0  0  0  0
 15 51  1  0  0  0  0
 15 16  1  0  0  0  0
 16 30  1  0  0  0  0
 16 17  1  1  0  0  0
 18 55  1  0  0  0  0
 19 20  1  0  0  0  0
 19  9  1  0  0  0  0
 20 28  2  0  0  0  0
 21 20  1  0  0  0  0
 22 21  1  0  0  0  0
 22 56  1  0  0  0  0
 23 22  2  0  0  0  0
 24 23  1  0  0  0  0
 25 26  2  0  0  0  0
 25 23  1  0  0  0  0
 26 27  1  0  0  0  0
 27 59  1  0  0  0  0
 27 21  2  0  0  0  0
 29 60  1  0  0  0  0
 30 31  1  6  0  0  0
 31 64  1  0  0  0  0
 31 63  1  0  0  0  0
 32 33  1  0  0  0  0
 33 66  1  0  0  0  0
 33 34  1  0  0  0  0
 34 35  1  1  0  0  0
 34 40  1  0  0  0  0
 36 37  1  0  0  0  0
 36 34  1  0  0  0  0
 37 39  2  0  0  0  0
 38 69  1  0  0  0  0
 38 37  1  0  0  0  0
 40 41  1  0  0  0  0
 41 42  1  0  0  0  0
 42 74  1  0  0  0  0
 43 40  2  0  0  0  0
 45 11  1  0  0  0  0
 46 11  1  0  0  0  0
 47 12  1  0  0  0  0
 50 14  1  0  0  0  0
 52 15  1  0  0  0  0
 53 18  1  0  0  0  0
 54 18  1  0  0  0  0
 57 25  1  0  0  0  0
 58 26  1  0  0  0  0
 61 29  1  0  0  0  0
 62 29  1  0  0  0  0
 65 33  1  0  0  0  0
 67 36  1  0  0  0  0
 68 38  1  0  0  0  0
 70 38  1  0  0  0  0
 71 41  1  0  0  0  0
 72 42  1  0  0  0  0
 73 42  1  0  0  0  0
M  END
