74
-1 1
O         1.923402   -0.806593    1.154006
C         0.749518   -0.461770    1.018797
O         0.464162    0.535161    0.070619
C        -0.892079    0.926258    0.191888
H        -0.925539    1.850401    0.804225
C        -1.393122    1.270880   -1.214478
C        -2.504099    2.343484   -1.224135
H        -2.056643    3.245983   -0.773154
C        -2.830791    2.711511   -2.675066
H        -3.583129    3.512412   -2.697540
C        -3.266700    1.511284   -3.527526
C        -2.984370    0.146363   -2.891370
C        -1.646288    0.019851   -2.132599
C        -1.693248   -1.285780   -1.305927
C        -2.431036   -1.119726    0.015450
C        -1.620983   -0.208097    0.962238
H        -2.322443    0.236368    1.695482
C        -0.495388   -0.082267   -3.143380
O        -1.632648    3.242998   -3.281446
C        -1.386879    4.544020   -3.195338
C        -0.012360    4.880855   -3.689778
C         0.298017    6.230308   -3.876802
C         1.568609    6.567400   -4.315868
F         1.872889    7.855104   -4.506539
C         2.540008    5.602668   -4.560792
C         2.220966    4.261024   -4.359312
C         0.947765    3.892947   -3.928936
O        -2.164942    5.367193   -2.778951
C        -3.780320    2.076009   -0.422651
C        -0.442276   -0.867350    1.621137
C        -0.482248   -1.943040    2.611760
S        -0.582194   -3.674514    1.838590
C        -0.378701   -4.753945    3.282760
C         0.916349   -4.552103    4.087429
H         0.772999   -3.744051    4.827304
N         2.020899   -4.166872    3.222941
C         3.067687   -3.422069    3.671959
C         3.883902   -2.755119    2.600015
O         3.312150   -3.294527    4.870428
C         1.233503   -5.838163    4.891161
N         2.218039   -5.670820    5.803745
C         2.727583   -6.757154    6.595221
O         0.630309   -6.885317    4.722626
H        -0.531960    1.796541   -1.651914
H        -2.753975    1.601640   -4.496667
H        -4.342965    1.592604   -3.744931
H        -3.015976   -0.628322   -3.675548
H        -3.803851   -0.105513   -2.202570
H        -0.668122   -1.619905   -1.080077
H        -2.150645   -2.078311   -1.923417
H        -2.579333   -2.098831    0.496080
H        -3.439656   -0.704398   -0.160095
H        -0.486375    0.780941   -3.829551
H        -0.583503   -0.999540   -3.749397
H         0.463967   -0.109548   -2.605335
H        -0.449260    6.998395   -3.673510
H         3.530462    5.913948   -4.896964
H         2.977439    3.493651   -4.533763
H         0.697731    2.845494   -3.759467
H        -3.536102    1.809984    0.615091
H        -4.391281    1.261357   -0.833940
H        -4.406196    2.982384   -0.399069
H        -1.343624   -1.884289    3.297777
H         0.448848   -1.955133    3.198460
H        -0.406979   -5.785706    2.906477
H        -1.233332   -4.648611    3.967216
H         1.741084   -4.022128    2.250013
H         4.154246   -3.473762    1.812051
H         4.789935   -2.332375    3.049092
H         3.272106   -1.960147    2.128991
H         2.711621   -4.771654    5.771625
H         3.757904   -7.026389    6.306295
H         2.081587   -7.630607    6.437538
H         2.728121   -6.503515    7.667770
