92
-1 1
O        -1.200097    1.724878    1.193108
C        -0.220221    1.032516    1.516774
O         0.402505    0.299184    0.490021
C         1.202048   -0.715236    1.091215
H         0.564838   -1.606083    1.202679
C         2.266693   -1.045922    0.090888
C         2.266323   -2.152143   -0.677427
C         3.233770   -1.946835   -1.829027
H         3.683958   -2.859565   -2.245802
C         4.205091   -0.928637   -1.268089
C         3.294060   -0.038955   -0.407728
C         3.989417    0.821992    0.671284
O         5.291142    1.246478    0.140380
C         6.437980    0.582417    0.222184
C         7.530865    1.364521   -0.471252
O         6.614823   -0.489476    0.744052
C         4.123869    0.089871    2.016625
C         2.930104    0.260040    2.960731
C         1.519311   -0.253553    2.548042
H         1.333248   -1.145860    3.175327
C         3.267107    2.157110    0.816339
O         2.503290   -1.260110   -2.869609
C         1.654289   -1.928547   -3.663607
C         0.444408   -1.133246   -3.965183
C         0.040222   -0.148814   -3.139869
C        -1.204025    0.622336   -3.196008
C        -1.571903    1.380898   -2.068077
C        -2.766430    2.080458   -2.035813
C        -3.625802    2.058998   -3.141929
O        -4.770063    2.770857   -3.029940
C        -5.704200    2.752839   -4.076097
C        -6.898103    3.593828   -3.663853
C        -7.977030    3.639743   -4.738883
C        -3.269558    1.321806   -4.280315
C        -2.070905    0.611901   -4.294498
O         1.846969   -3.055996   -4.053599
C         1.377956   -3.355063   -0.630495
C         0.424076    0.772720    2.716590
C         0.040452    1.405644    3.987877
S        -1.187559    0.463132    5.070647
C        -2.406736    0.100716    3.773285
C        -2.125096   -1.219617    3.028159
H        -1.059938   -1.470329    3.158224
N        -2.396108   -1.089116    1.617186
C        -1.984961   -2.085708    0.792459
C        -1.992689   -1.764842   -0.681187
O        -1.573681   -3.153848    1.227410
C        -2.956717   -2.341614    3.659251
N        -2.332586   -2.926711    4.720147
C        -2.951562   -3.948807    5.518062
O        -4.085997   -2.618360    3.309171
H         4.734434   -0.379278   -2.059586
H         4.939791   -1.445737   -0.636205
H         2.770865    0.657011   -1.085469
H         7.336978    1.366709   -1.554106
H         8.501230    0.895349   -0.273379
H         7.528476    2.409838   -0.134280
H         5.007959    0.490327    2.535666
H         4.338334   -0.973209    1.836188
H         2.838382    1.326081    3.218699
H         3.209801   -0.241300    3.901610
H         3.318789    2.699918   -0.137981
H         3.741813    2.772620    1.595094
H         2.211296    2.008659    1.076880
H        -0.159411   -1.496660   -4.800080
H         0.680144    0.077355   -2.280759
H        -0.942979    1.394452   -1.172718
H        -3.047284    2.639180   -1.141839
H        -6.023859    1.714648   -4.291940
H        -5.255376    3.156244   -5.005233
H        -6.542755    4.609968   -3.429782
H        -7.304379    3.182297   -2.726432
H        -7.592381    4.069724   -5.677654
H        -8.830717    4.253996   -4.417811
H        -8.360136    2.632366   -4.967374
H        -3.915688    1.290885   -5.157780
H        -1.810185    0.041446   -5.189300
H         0.623697   -3.321387    0.166853
H         1.984906   -4.265858   -0.496618
H         0.845877   -3.480859   -1.586431
H        -0.441911    2.376509    3.804554
H         0.891905    1.565825    4.669836
H        -2.376613    0.940681    3.063820
H        -3.404770    0.082753    4.233892
H        -2.420271   -0.139992    1.242678
H        -1.036788   -1.271579   -0.912888
H        -2.799066   -1.073877   -0.961787
H        -2.064267   -2.694965   -1.257091
H        -1.398152   -2.611058    4.947224
H        -3.964177   -4.103447    5.123102
H        -3.023629   -3.652539    6.577520
H        -2.402666   -4.903303    5.456953
