92
-1 1
O         4.841379   -3.864736   -8.929326
C         5.444605   -4.842356   -8.519605
O         5.560868   -5.945028   -9.325578
C         6.523684   -6.878003   -8.784064
H         6.103882   -7.878892   -8.940173
C         7.740001   -6.653412   -9.645118
C         7.865469   -7.168261  -10.875042
C         8.746290   -6.277806  -11.719029
H         9.427057   -6.796595  -12.409745
C         9.429093   -5.329923  -10.731436
C         8.721010   -5.538877   -9.372329
C         9.643660   -5.803192   -8.129777
O        11.035453   -6.039015   -8.507764
C        11.465847   -7.114279   -9.165256
C        12.966628   -7.049705   -9.331088
O        10.779216   -8.002545   -9.598048
C         9.180796   -7.002945   -7.291749
C         7.873023   -6.862557   -6.511579
C         6.579765   -6.535099   -7.279691
H         5.784215   -7.139899   -6.807505
C         9.749382   -4.533991   -7.293770
O         7.828578   -5.471065  -12.495246
C         7.288755   -5.970754  -13.616523
C         5.883252   -5.546189  -13.796873
C         5.136644   -5.120551  -12.760293
C         3.696112   -4.844982  -12.750028
C         3.122827   -4.311862  -11.579332
C         1.760938   -4.063822  -11.505906
C         0.926566   -4.348056  -12.594705
O        -0.388528   -4.082907  -12.429777
C        -1.291935   -4.380924  -13.461751
C        -2.687656   -4.012118  -12.994632
C        -3.749103   -4.298417  -14.049733
C         1.480587   -4.881726  -13.766217
C         2.851005   -5.122047  -13.831200
O         7.872107   -6.715641  -14.368821
C         7.063564   -8.271630  -11.490882
C         6.116873   -5.097800   -7.275346
C         6.003180   -4.263438   -6.179511
S         4.086580   -4.741050   -4.816196
C         3.012117   -5.069987   -6.247873
C         2.881576   -6.556887   -6.641216
H         3.841162   -7.057675   -6.452536
N         2.617414   -6.704838   -8.049614
C         3.180780   -7.683651   -8.799083
C         2.880697   -7.626721  -10.280758
O         3.933301   -8.526317   -8.332494
C         1.817833   -7.278150   -5.799843
N         2.113346   -7.304681   -4.474612
C         1.206075   -7.833197   -3.493351
O         0.810560   -7.764078   -6.283725
H         9.307977   -4.299314  -11.089208
H        10.505605   -5.521906  -10.686065
H         8.145502   -4.635309   -9.117380
H        13.223408   -6.203744   -9.985694
H        13.326611   -7.983257   -9.777609
H        13.450213   -6.873347   -8.360640
H         9.984717   -7.210873   -6.565260
H         9.124034   -7.876864   -7.953941
H         7.991889   -6.116136   -5.710090
H         7.732823   -7.821125   -5.988576
H        10.182834   -3.724313   -7.899859
H        10.393186   -4.698086   -6.416627
H         8.751042   -4.221344   -6.959450
H         5.471939   -5.735132  -14.791422
H         5.636345   -5.000037  -11.792798
H         3.756067   -4.104636  -10.707253
H         1.314896   -3.650565  -10.599300
H        -1.245637   -5.457513  -13.716978
H        -1.033251   -3.815697  -14.378585
H        -2.691994   -2.944624  -12.722510
H        -2.902491   -4.570489  -12.069840
H        -3.561387   -3.729952  -14.974744
H        -4.750637   -4.023506  -13.688626
H        -3.773840   -5.367252  -14.315575
H         0.856854   -5.120057  -14.627893
H         3.261114   -5.552282  -14.747821
H         6.622749   -8.927654  -10.728485
H         7.690768   -8.878234  -12.160919
H         6.232592   -7.874601  -12.096866
H         5.666926   -3.240662   -6.358132
H         6.660223   -4.398135   -5.317983
H         3.427314   -4.534591   -7.111509
H         2.011997   -4.646149   -6.056758
H         1.938369   -6.091532   -8.477651
H         3.734382   -7.128669  -10.764360
H         1.971247   -7.060962  -10.527334
H         2.804532   -8.650176  -10.668934
H         2.913769   -6.741744   -4.173992
H         0.395118   -8.348497   -4.024608
H         0.765585   -7.038005   -2.867599
H         1.710927   -8.553754   -2.829436
