-1 1
 OpenBabel05232413493D

 92 94  0  0  1  0  0  0  0  0999 V2000
   -0.9148    1.4972    0.2415 O   0  0  0  0  0  0  0  0  0  0  0  0
   -0.1110    0.7485    0.7378 C   0  0  0  0  0  0  0  0  0  0  0  0
    0.1497   -0.4666    0.2320 O   0  0  0  0  0  0  0  0  0  0  0  0
    1.3682   -1.0131    0.8168 C   0  0  1  0  0  0  0  0  0  0  0  0
    1.2064   -2.0950    0.8783 H   0  0  0  0  0  0  0  0  0  0  0  0
    2.4690   -0.6450   -0.1485 C   0  0  1  0  0  3  0  0  0  0  0  0
    2.5322   -1.1377   -1.3911 C   0  0  2  0  0  3  0  0  0  0  0  0
    3.3745   -0.2518   -2.2748 C   0  0  2  0  0  0  0  0  0  0  0  0
    4.0746   -0.7860   -2.9333 H   0  0  0  0  0  0  0  0  0  0  0  0
    4.0291    0.7591   -1.3303 C   0  0  0  0  0  0  0  0  0  0  0  0
    3.4033    0.5250    0.0642 C   0  0  2  0  0  0  0  0  0  0  0  0
    4.4194    0.3757    1.2443 C   0  0  2  0  0  0  0  0  0  0  0  0
    5.7665    0.0405    0.7932 O   0  0  0  0  0  0  0  0  0  0  0  0
    6.0996   -1.0999    0.1889 C   0  0  0  0  0  0  0  0  0  0  0  0
    7.5848   -1.1224   -0.0866 C   0  0  0  0  0  0  0  0  0  0  0  0
    5.3422   -1.9799   -0.1243 O   0  0  0  0  0  0  0  0  0  0  0  0
    3.9903   -0.6807    2.2674 C   0  0  0  0  0  0  0  0  0  0  0  0
    2.6941   -0.4166    3.0302 C   0  0  0  0  0  0  0  0  0  0  0  0
    1.3935   -0.3785    2.2197 C   0  0  1  0  0  0  0  0  0  0  0  0
    0.6529   -0.9568    2.7943 H   0  0  0  0  0  0  0  0  0  0  0  0
    4.6348    1.7399    1.8915 C   0  0  0  0  0  0  0  0  0  0  0  0
    2.4389    0.4747   -3.1010 O   0  0  0  0  0  0  0  0  0  0  0  0
    2.0480   -0.0355   -4.2764 C   0  0  0  0  0  0  0  0  0  0  0  0
    0.6912    0.4220   -4.6491 C   0  0  0  0  0  0  0  0  0  0  0  0
   -0.1754    0.8807   -3.7280 C   0  0  0  0  0  0  0  0  0  0  0  0
   -1.5786    1.2559   -3.9235 C   0  0  0  0  0  0  0  0  0  0  0  0
   -2.3630    1.5420   -2.7894 C   0  0  0  0  0  0  0  0  0  0  0  0
   -3.6993    1.8868   -2.9182 C   0  0  0  0  0  0  0  0  0  0  0  0
   -4.2936    1.9616   -4.1847 C   0  0  0  0  0  0  0  0  0  0  0  0
   -5.5998    2.3062   -4.2155 O   0  0  0  0  0  0  0  0  0  0  0  0
   -6.2678    2.3885   -5.4477 C   0  0  0  0  0  0  0  0  0  0  0  0
   -7.7106    2.7766   -5.1833 C   0  0  0  0  0  0  0  0  0  0  0  0
   -8.5259    2.8934   -6.4653 C   0  0  0  0  0  0  0  0  0  0  0  0
   -3.5258    1.6860   -5.3243 C   0  0  0  0  0  0  0  0  0  0  0  0
   -2.1852    1.3375   -5.1826 C   0  0  0  0  0  0  0  0  0  0  0  0
    2.7119   -0.7987   -4.9372 O   0  0  0  0  0  0  0  0  0  0  0  0
    1.7243   -2.2517   -1.9739 C   0  0  0  0  0  0  0  0  0  0  0  0
    0.7317    0.9460    1.9529 C   0  0  0  0  0  0  0  0  0  0  0  0
    0.7264    2.0774    2.6564 C   0  0  0  0  0  0  0  0  0  0  0  0
   -0.1192    0.1843    5.6514 S   0  0  0  0  0  1  0  0  0  0  0  0
   -1.4241   -0.2833    4.4626 C   0  0  0  0  0  0  0  0  0  0  0  0
   -1.7547   -1.7956    4.4442 C   0  0  2  0  0  0  0  0  0  0  0  0
   -0.8032   -2.3444    4.5291 H   0  0  0  0  0  0  0  0  0  0  0  0
   -2.4043   -2.2097    3.2201 N   0  0  0  0  0  0  0  0  0  0  0  0
   -1.7373   -2.7416    2.1760 C   0  0  0  0  0  0  0  0  0  0  0  0
   -2.5776   -3.0914    0.9644 C   0  0  0  0  0  0  0  0  0  0  0  0
   -0.5234   -2.9028    2.1625 O   0  0  0  0  0  0  0  0  0  0  0  0
   -2.6786   -2.1809    5.6045 C   0  0  0  0  0  0  0  0  0  0  0  0
   -2.1758   -1.9002    6.8213 N   0  0  0  0  0  0  0  0  0  0  0  0
   -2.9518   -2.0437    8.0224 C   0  0  0  0  0  0  0  0  0  0  0  0
   -3.7838   -2.6774    5.4049 O   0  0  0  0  0  0  0  0  0  0  0  0
    3.8217    1.7723   -1.6982 H   0  0  0  0  0  0  0  0  0  0  0  0
    5.1186    0.6441   -1.3208 H   0  0  0  0  0  0  0  0  0  0  0  0
    2.7885    1.3974    0.3386 H   0  0  0  0  0  0  0  0  0  0  0  0
    7.8302   -0.3438   -0.8239 H   0  0  0  0  0  0  0  0  0  0  0  0
    7.8692   -2.1045   -0.4805 H   0  0  0  0  0  0  0  0  0  0  0  0
    8.1457   -0.8965    0.8304 H   0  0  0  0  0  0  0  0  0  0  0  0
    4.8089   -0.7687    3.0008 H   0  0  0  0  0  0  0  0  0  0  0  0
    3.9248   -1.6489    1.7511 H   0  0  0  0  0  0  0  0  0  0  0  0
    2.7663    0.5031    3.6284 H   0  0  0  0  0  0  0  0  0  0  0  0
    2.5922   -1.2131    3.7793 H   0  0  0  0  0  0  0  0  0  0  0  0
    5.0075    2.4556    1.1433 H   0  0  0  0  0  0  0  0  0  0  0  0
    5.3709    1.6696    2.7054 H   0  0  0  0  0  0  0  0  0  0  0  0
    3.6901    2.1244    2.2981 H   0  0  0  0  0  0  0  0  0  0  0  0
    0.4167    0.2428   -5.6913 H   0  0  0  0  0  0  0  0  0  0  0  0
    0.1875    0.9616   -2.6983 H   0  0  0  0  0  0  0  0  0  0  0  0
   -1.9137    1.4855   -1.7917 H   0  0  0  0  0  0  0  0  0  0  0  0
   -4.3103    2.1049   -2.0409 H   0  0  0  0  0  0  0  0  0  0  0  0
   -6.2233    1.4168   -5.9769 H   0  0  0  0  0  0  0  0  0  0  0  0
   -5.7829    3.1398   -6.1012 H   0  0  0  0  0  0  0  0  0  0  0  0
   -7.7182    3.7307   -4.6328 H   0  0  0  0  0  0  0  0  0  0  0  0
   -8.1543    2.0253   -4.5109 H   0  0  0  0  0  0  0  0  0  0  0  0
   -8.1085    3.6581   -7.1398 H   0  0  0  0  0  0  0  0  0  0  0  0
   -9.5664    3.1748   -6.2483 H   0  0  0  0  0  0  0  0  0  0  0  0
   -8.5477    1.9399   -7.0167 H   0  0  0  0  0  0  0  0  0  0  0  0
   -3.9585    1.7410   -6.3233 H   0  0  0  0  0  0  0  0  0  0  0  0
   -1.6017    1.1310   -6.0827 H   0  0  0  0  0  0  0  0  0  0  0  0
    1.3115   -2.9053   -1.1940 H   0  0  0  0  0  0  0  0  0  0  0  0
    2.3353   -2.8553   -2.6615 H   0  0  0  0  0  0  0  0  0  0  0  0
    0.8725   -1.8569   -2.5521 H   0  0  0  0  0  0  0  0  0  0  0  0
    0.1061    2.9138    2.3240 H   0  0  0  0  0  0  0  0  0  0  0  0
    1.2764    2.1684    3.5953 H   0  0  0  0  0  0  0  0  0  0  0  0
   -1.1199   -0.0171    3.4386 H   0  0  0  0  0  0  0  0  0  0  0  0
   -2.3568    0.2775    4.6521 H   0  0  0  0  0  0  0  0  0  0  0  0
   -3.4131   -2.2995    3.2820 H   0  0  0  0  0  0  0  0  0  0  0  0
   -2.3373   -2.3631    0.1753 H   0  0  0  0  0  0  0  0  0  0  0  0
   -3.6591   -3.0693    1.1569 H   0  0  0  0  0  0  0  0  0  0  0  0
   -2.2833   -4.0854    0.6018 H   0  0  0  0  0  0  0  0  0  0  0  0
   -1.3311   -1.2970    6.8201 H   0  0  0  0  0  0  0  0  0  0  0  0
   -3.8419   -2.6453    7.7954 H   0  0  0  0  0  0  0  0  0  0  0  0
   -3.2814   -1.0663    8.4147 H   0  0  0  0  0  0  0  0  0  0  0  0
   -2.3685   -2.5484    8.8092 H   0  0  0  0  0  0  0  0  0  0  0  0
  1  2  2  0  0  0  0
  2 38  1  0  0  0  0
  3  2  1  0  0  0  0
  3  4  1  0  0  0  0
  4  5  1  1  0  0  0
  4 19  1  0  0  0  0
  6 11  1  0  0  0  0
  6  4  1  0  0  0  0
  7  6  1  0  0  0  0
  8  7  1  0  0  0  0
  8 10  1  0  0  0  0
  9  8  1  0  0  0  0
 10 53  1  0  0  0  0
 10 11  1  0  0  0  0
 11 54  1  0  0  0  0
 11 12  1  0  0  0  0
 12 21  1  0  0  0  0
 12 17  1  0  0  0  0
 13 12  1  0  0  0  0
 14 13  1  0  0  0  0
 15 14  1  0  0  0  0
 15 57  1  0  0  0  0
 16 14  2  0  0  0  0
 17 58  1  0  0  0  0
 17 18  1  0  0  0  0
 18 60  1  0  0  0  0
 18 61  1  0  0  0  0
 19 20  1  0  0  0  0
 19 18  1  0  0  0  0
 21 64  1  0  0  0  0
 21 63  1  0  0  0  0
 22  8  1  0  0  0  0
 23 22  1  0  0  0  0
 24 23  1  0  0  0  0
 24 25  2  0  0  0  0
 25 66  1  0  0  0  0
 26 25  1  0  0  0  0
 26 27  1  0  0  0  0
 27 67  1  0  0  0  0
 28 27  2  0  0  0  0
 28 68  1  0  0  0  0
 29 28  1  0  0  0  0
 30 29  1  0  0  0  0
 31 32  1  0  0  0  0
 31 30  1  0  0  0  0
 32 71  1  0  0  0  0
 32 72  1  0  0  0  0
 33 74  1  0  0  0  0
 33 32  1  0  0  0  0
 34 35  1  0  0  0  0
 34 29  2  0  0  0  0
 35 26  2  0  0  0  0
 36 23  2  0  0  0  0
 37  7  1  0  0  0  0
 37 78  1  0  0  0  0
 38 19  1  0  0  0  0
 38 39  2  0  0  0  0
 39 82  1  0  0  0  0
 41 84  1  0  0  0  0
 41 40  1  0  0  0  0
 42 41  1  0  0  0  0
 42 43  1  0  0  0  0
 42 48  1  0  0  0  0
 44 85  1  0  0  0  0
 44 42  1  0  0  0  0
 45 44  1  0  0  0  0
 46 87  1  0  0  0  0
 46 45  1  0  0  0  0
 47 45  2  0  0  0  0
 48 49  1  0  0  0  0
 49 50  1  0  0  0  0
 50 91  1  0  0  0  0
 50 92  1  0  0  0  0
 51 48  2  0  0  0  0
 52 10  1  0  0  0  0
 55 15  1  0  0  0  0
 56 15  1  0  0  0  0
 59 17  1  0  0  0  0
 62 21  1  0  0  0  0
 65 24  1  0  0  0  0
 69 31  1  0  0  0  0
 70 31  1  0  0  0  0
 73 33  1  0  0  0  0
 75 33  1  0  0  0  0
 76 34  1  0  0  0  0
 77 35  1  0  0  0  0
 79 37  1  0  0  0  0
 80 37  1  0  0  0  0
 81 39  1  0  0  0  0
 83 41  1  0  0  0  0
 86 46  1  0  0  0  0
 88 46  1  0  0  0  0
 89 49  1  0  0  0  0
 90 50  1  0  0  0  0
M  END
