-1 1
 OpenBabel05232414493D

 92 94  0  0  1  0  0  0  0  0999 V2000
    4.8414   -3.8647   -8.9293 O   0  0  0  0  0  0  0  0  0  0  0  0
    5.4446   -4.8424   -8.5196 C   0  0  0  0  0  0  0  0  0  0  0  0
    5.5609   -5.9450   -9.3256 O   0  0  0  0  0  0  0  0  0  0  0  0
    6.5237   -6.8780   -8.7841 C   0  0  1  0  0  0  0  0  0  0  0  0
    6.1039   -7.8789   -8.9402 H   0  0  0  0  0  0  0  0  0  0  0  0
    7.7400   -6.6534   -9.6451 C   0  0  1  0  0  3  0  0  0  0  0  0
    7.8655   -7.1683  -10.8750 C   0  0  2  0  0  3  0  0  0  0  0  0
    8.7463   -6.2778  -11.7190 C   0  0  2  0  0  0  0  0  0  0  0  0
    9.4271   -6.7966  -12.4097 H   0  0  0  0  0  0  0  0  0  0  0  0
    9.4291   -5.3299  -10.7314 C   0  0  0  0  0  0  0  0  0  0  0  0
    8.7210   -5.5389   -9.3723 C   0  0  2  0  0  0  0  0  0  0  0  0
    9.6437   -5.8032   -8.1298 C   0  0  2  0  0  0  0  0  0  0  0  0
   11.0355   -6.0390   -8.5078 O   0  0  0  0  0  0  0  0  0  0  0  0
   11.4658   -7.1143   -9.1653 C   0  0  0  0  0  0  0  0  0  0  0  0
   12.9666   -7.0497   -9.3311 C   0  0  0  0  0  0  0  0  0  0  0  0
   10.7792   -8.0025   -9.5980 O   0  0  0  0  0  0  0  0  0  0  0  0
    9.1808   -7.0029   -7.2917 C   0  0  0  0  0  0  0  0  0  0  0  0
    7.8730   -6.8626   -6.5116 C   0  0  0  0  0  0  0  0  0  0  0  0
    6.5798   -6.5351   -7.2797 C   0  0  1  0  0  0  0  0  0  0  0  0
    5.7842   -7.1399   -6.8075 H   0  0  0  0  0  0  0  0  0  0  0  0
    9.7494   -4.5340   -7.2938 C   0  0  0  0  0  0  0  0  0  0  0  0
    7.8286   -5.4711  -12.4952 O   0  0  0  0  0  0  0  0  0  0  0  0
    7.2888   -5.9708  -13.6165 C   0  0  0  0  0  0  0  0  0  0  0  0
    5.8833   -5.5462  -13.7969 C   0  0  0  0  0  0  0  0  0  0  0  0
    5.1366   -5.1206  -12.7603 C   0  0  0  0  0  0  0  0  0  0  0  0
    3.6961   -4.8450  -12.7500 C   0  0  0  0  0  0  0  0  0  0  0  0
    3.1228   -4.3119  -11.5793 C   0  0  0  0  0  0  0  0  0  0  0  0
    1.7609   -4.0638  -11.5059 C   0  0  0  0  0  0  0  0  0  0  0  0
    0.9266   -4.3481  -12.5947 C   0  0  0  0  0  0  0  0  0  0  0  0
   -0.3885   -4.0829  -12.4298 O   0  0  0  0  0  0  0  0  0  0  0  0
   -1.2919   -4.3809  -13.4618 C   0  0  0  0  0  0  0  0  0  0  0  0
   -2.6877   -4.0121  -12.9946 C   0  0  0  0  0  0  0  0  0  0  0  0
   -3.7491   -4.2984  -14.0497 C   0  0  0  0  0  0  0  0  0  0  0  0
    1.4806   -4.8817  -13.7662 C   0  0  0  0  0  0  0  0  0  0  0  0
    2.8510   -5.1220  -13.8312 C   0  0  0  0  0  0  0  0  0  0  0  0
    7.8721   -6.7156  -14.3688 O   0  0  0  0  0  0  0  0  0  0  0  0
    7.0636   -8.2716  -11.4909 C   0  0  0  0  0  0  0  0  0  0  0  0
    6.1169   -5.0978   -7.2753 C   0  0  2  0  0  3  0  0  0  0  0  0
    6.0032   -4.2634   -6.1795 C   0  0  0  0  0  3  0  0  0  0  0  0
    4.0866   -4.7411   -4.8162 S   0  0  0  0  0  1  0  0  0  0  0  0
    3.0121   -5.0700   -6.2479 C   0  0  0  0  0  0  0  0  0  0  0  0
    2.8816   -6.5569   -6.6412 C   0  0  2  0  0  0  0  0  0  0  0  0
    3.8412   -7.0577   -6.4525 H   0  0  0  0  0  0  0  0  0  0  0  0
    2.6174   -6.7048   -8.0496 N   0  0  0  0  0  0  0  0  0  0  0  0
    3.1808   -7.6837   -8.7991 C   0  0  0  0  0  0  0  0  0  0  0  0
    2.8807   -7.6267  -10.2808 C   0  0  0  0  0  0  0  0  0  0  0  0
    3.9333   -8.5263   -8.3325 O   0  0  0  0  0  0  0  0  0  0  0  0
    1.8178   -7.2782   -5.7998 C   0  0  0  0  0  0  0  0  0  0  0  0
    2.1133   -7.3047   -4.4746 N   0  0  0  0  0  0  0  0  0  0  0  0
    1.2061   -7.8332   -3.4934 C   0  0  0  0  0  0  0  0  0  0  0  0
    0.8106   -7.7641   -6.2837 O   0  0  0  0  0  0  0  0  0  0  0  0
    9.3080   -4.2993  -11.0892 H   0  0  0  0  0  0  0  0  0  0  0  0
   10.5056   -5.5219  -10.6861 H   0  0  0  0  0  0  0  0  0  0  0  0
    8.1455   -4.6353   -9.1174 H   0  0  0  0  0  0  0  0  0  0  0  0
   13.2234   -6.2037   -9.9857 H   0  0  0  0  0  0  0  0  0  0  0  0
   13.3266   -7.9833   -9.7776 H   0  0  0  0  0  0  0  0  0  0  0  0
   13.4502   -6.8733   -8.3606 H   0  0  0  0  0  0  0  0  0  0  0  0
    9.9847   -7.2109   -6.5653 H   0  0  0  0  0  0  0  0  0  0  0  0
    9.1240   -7.8769   -7.9539 H   0  0  0  0  0  0  0  0  0  0  0  0
    7.9919   -6.1161   -5.7101 H   0  0  0  0  0  0  0  0  0  0  0  0
    7.7328   -7.8211   -5.9886 H   0  0  0  0  0  0  0  0  0  0  0  0
   10.1828   -3.7243   -7.8999 H   0  0  0  0  0  0  0  0  0  0  0  0
   10.3932   -4.6981   -6.4166 H   0  0  0  0  0  0  0  0  0  0  0  0
    8.7510   -4.2213   -6.9595 H   0  0  0  0  0  0  0  0  0  0  0  0
    5.4719   -5.7351  -14.7914 H   0  0  0  0  0  0  0  0  0  0  0  0
    5.6363   -5.0000  -11.7928 H   0  0  0  0  0  0  0  0  0  0  0  0
    3.7561   -4.1046  -10.7073 H   0  0  0  0  0  0  0  0  0  0  0  0
    1.3149   -3.6506  -10.5993 H   0  0  0  0  0  0  0  0  0  0  0  0
   -1.2456   -5.4575  -13.7170 H   0  0  0  0  0  0  0  0  0  0  0  0
   -1.0333   -3.8157  -14.3786 H   0  0  0  0  0  0  0  0  0  0  0  0
   -2.6920   -2.9446  -12.7225 H   0  0  0  0  0  0  0  0  0  0  0  0
   -2.9025   -4.5705  -12.0698 H   0  0  0  0  0  0  0  0  0  0  0  0
   -3.5614   -3.7300  -14.9747 H   0  0  0  0  0  0  0  0  0  0  0  0
   -4.7506   -4.0235  -13.6886 H   0  0  0  0  0  0  0  0  0  0  0  0
   -3.7738   -5.3673  -14.3156 H   0  0  0  0  0  0  0  0  0  0  0  0
    0.8569   -5.1201  -14.6279 H   0  0  0  0  0  0  0  0  0  0  0  0
    3.2611   -5.5523  -14.7478 H   0  0  0  0  0  0  0  0  0  0  0  0
    6.6227   -8.9277  -10.7285 H   0  0  0  0  0  0  0  0  0  0  0  0
    7.6908   -8.8782  -12.1609 H   0  0  0  0  0  0  0  0  0  0  0  0
    6.2326   -7.8746  -12.0969 H   0  0  0  0  0  0  0  0  0  0  0  0
    5.6669   -3.2407   -6.3581 H   0  0  0  0  0  0  0  0  0  0  0  0
    6.6602   -4.3981   -5.3180 H   0  0  0  0  0  0  0  0  0  0  0  0
    3.4273   -4.5346   -7.1115 H   0  0  0  0  0  0  0  0  0  0  0  0
    2.0120   -4.6461   -6.0568 H   0  0  0  0  0  0  0  0  0  0  0  0
    1.9384   -6.0915   -8.4777 H   0  0  0  0  0  0  0  0  0  0  0  0
    3.7344   -7.1287  -10.7644 H   0  0  0  0  0  0  0  0  0  0  0  0
    1.9712   -7.0610  -10.5273 H   0  0  0  0  0  0  0  0  0  0  0  0
    2.8045   -8.6502  -10.6689 H   0  0  0  0  0  0  0  0  0  0  0  0
    2.9138   -6.7417   -4.1740 H   0  0  0  0  0  0  0  0  0  0  0  0
    0.3951   -8.3485   -4.0246 H   0  0  0  0  0  0  0  0  0  0  0  0
    0.7656   -7.0380   -2.8676 H   0  0  0  0  0  0  0  0  0  0  0  0
    1.7109   -8.5538   -2.8294 H   0  0  0  0  0  0  0  0  0  0  0  0
  1  2  2  0  0  0  0
  2 38  1  0  0  0  0
  3  4  1  0  0  0  0
  3  2  1  0  0  0  0
  4  5  1  6  0  0  0
  4 19  1  0  0  0  0
  6 11  1  0  0  0  0
  6  4  1  0  0  0  0
  7  6  1  0  0  0  0
  8  7  1  0  0  0  0
  8 10  1  0  0  0  0
  9  8  1  0  0  0  0
 10 53  1  0  0  0  0
 10 11  1  0  0  0  0
 11 54  1  0  0  0  0
 11 12  1  0  0  0  0
 12 21  1  0  0  0  0
 12 17  1  0  0  0  0
 13 12  1  0  0  0  0
 14 13  1  0  0  0  0
 15 14  1  0  0  0  0
 15 57  1  0  0  0  0
 16 14  2  0  0  0  0
 17 58  1  0  0  0  0
 17 18  1  0  0  0  0
 18 61  1  0  0  0  0
 18 60  1  0  0  0  0
 19 38  1  0  0  0  0
 19 20  1  0  0  0  0
 19 18  1  0  0  0  0
 21 64  1  0  0  0  0
 21 63  1  0  0  0  0
 22  8  1  0  0  0  0
 23 22  1  0  0  0  0
 24 23  1  0  0  0  0
 24 25  2  0  0  0  0
 25 26  1  0  0  0  0
 25 66  1  0  0  0  0
 26 27  1  0  0  0  0
 27 28  2  0  0  0  0
 27 67  1  0  0  0  0
 28 68  1  0  0  0  0
 29 30  1  0  0  0  0
 29 28  1  0  0  0  0
 31 32  1  0  0  0  0
 31 30  1  0  0  0  0
 32 71  1  0  0  0  0
 32 72  1  0  0  0  0
 33 74  1  0  0  0  0
 33 32  1  0  0  0  0
 34 29  2  0  0  0  0
 35 34  1  0  0  0  0
 35 26  2  0  0  0  0
 36 23  2  0  0  0  0
 37  7  1  0  0  0  0
 37 78  1  0  0  0  0
 38 39  1  0  0  0  0
 39 82  1  0  0  0  0
 41 84  1  0  0  0  0
 41 40  1  0  0  0  0
 42 43  1  0  0  0  0
 42 41  1  0  0  0  0
 42 48  1  0  0  0  0
 44 42  1  0  0  0  0
 45 47  2  0  0  0  0
 45 44  1  0  0  0  0
 46 45  1  0  0  0  0
 48 49  1  0  0  0  0
 49 89  1  0  0  0  0
 49 50  1  0  0  0  0
 50 91  1  0  0  0  0
 50 92  1  0  0  0  0
 51 48  2  0  0  0  0
 52 10  1  0  0  0  0
 55 15  1  0  0  0  0
 56 15  1  0  0  0  0
 59 17  1  0  0  0  0
 62 21  1  0  0  0  0
 65 24  1  0  0  0  0
 69 31  1  0  0  0  0
 70 31  1  0  0  0  0
 73 33  1  0  0  0  0
 75 33  1  0  0  0  0
 76 34  1  0  0  0  0
 77 35  1  0  0  0  0
 79 37  1  0  0  0  0
 80 37  1  0  0  0  0
 81 39  1  0  0  0  0
 83 41  1  0  0  0  0
 85 44  1  0  0  0  0
 86 46  1  0  0  0  0
 87 46  1  0  0  0  0
 88 46  1  0  0  0  0
 90 50  1  0  0  0  0
M  END
