74
-1 1
O        -4.319203    1.578189    1.607114
C        -3.486707    0.739687    1.395282
O        -2.720651    0.742078    0.285331
C        -1.879262   -0.433085    0.197443
H        -2.392418   -1.142939   -0.465138
C        -0.551692   -0.002828   -0.464724
C        -0.635683   -0.324178   -1.979070
H        -0.820937   -1.408785   -2.063886
C         0.679052   -0.071313   -2.707086
H         0.564153   -0.305621   -3.775084
C         1.852127   -0.870183   -2.118068
C         1.513848   -1.468586   -0.755679
C         0.793796   -0.497654    0.195802
C         0.587934   -1.237475    1.534546
C        -0.573186   -0.705968    2.359400
C        -1.863433   -1.030635    1.613853
H        -1.956884   -2.122305    1.568131
C         1.679612    0.731603    0.469142
O         0.931461    1.349231   -2.624529
C         1.702390    1.918078   -3.538478
C         1.873578    3.386465   -3.283739
C         1.246615    4.015787   -2.203916
C         1.445654    5.379438   -2.010232
Br         0.603673    6.241827   -0.547138
C         2.252590    6.121753   -2.871805
C         2.869727    5.482151   -3.946277
C         2.682943    4.119132   -4.154701
O         2.215870    1.339221   -4.464076
C        -1.780847    0.414526   -2.671992
C        -3.107325   -0.446739    2.212846
C        -3.830935   -0.906373    3.234069
S        -2.780879   -4.641160    3.312173
C        -1.122094   -4.575044    2.544154
C        -1.025840   -4.991668    1.052496
H        -1.399491   -6.028448    0.984164
N         0.333716   -4.922933    0.559168
C         1.337915   -5.761350    0.900509
C         2.668345   -5.456024    0.225182
O         1.229585   -6.675492    1.697948
C        -1.853509   -4.126465    0.085495
N        -3.165154   -4.105066    0.343307
C        -4.091107   -3.275679   -0.380565
O        -1.315188   -3.520142   -0.849369
H        -0.558287    1.094040   -0.367793
H         2.733258   -0.214413   -2.056601
H         2.125221   -1.674230   -2.817538
H         2.431760   -1.839924   -0.269892
H         0.854998   -2.338502   -0.896175
H         1.529896   -1.192971    2.105281
H         0.403853   -2.304766    1.336572
H        -0.482548    0.382212    2.526445
H        -0.603713   -1.183134    3.350703
H         1.815689    1.353628   -0.425853
H         2.675120    0.420807    0.826408
H         1.227842    1.367715    1.247114
H         0.613715    3.437081   -1.530534
H         2.396311    7.190112   -2.702762
H         3.502345    6.059210   -4.623808
H         3.156765    3.597519   -4.987890
H        -1.644401    1.504209   -2.602689
H        -2.753193    0.179151   -2.220115
H        -1.827005    0.140591   -3.737776
H        -4.732075   -0.366697    3.539291
H        -3.555674   -1.842978    3.735012
H        -0.445115   -5.260968    3.072048
H        -0.685835   -3.567266    2.640298
H         0.440810   -4.284465   -0.223575
H         2.591517   -4.723330   -0.590633
H         3.094620   -6.393443   -0.157063
H         3.359853   -5.064499    0.986014
H        -3.411952   -4.417501    1.315505
H        -3.657639   -3.004726   -1.352687
H        -4.326727   -2.350717    0.173909
H        -5.034537   -3.816716   -0.549262
