74
-1 1
O        -3.638512    0.579671    1.728032
C        -2.932339   -0.099411    1.004581
O        -3.128324   -0.000711   -0.398410
C        -2.084339   -0.662012   -1.069719
H        -2.528984   -1.182166   -1.939219
C        -1.030556    0.333953   -1.607705
C        -1.742062    1.414293   -2.471927
H        -2.598994    0.911843   -2.957837
C        -0.936842    1.963313   -3.649865
H        -1.603434    2.573812   -4.275815
C        -0.266892    0.883821   -4.517636
C        -0.215020   -0.489611   -3.846183
C         0.119084   -0.430062   -2.348744
C         0.260131   -1.872066   -1.800173
C        -0.007996   -1.925468   -0.301106
C        -1.495741   -1.664179   -0.052615
H        -2.023826   -2.637341   -0.198680
C         1.468806    0.272334   -2.123280
O         0.049839    2.879527   -3.122388
C         0.489260    3.859430   -3.894349
C         1.493628    4.719755   -3.184936
C         1.847075    4.482129   -1.853148
C         2.788711    5.309514   -1.248327
Br         3.280036    4.994597    0.555477
C         3.377379    6.365202   -1.943602
C         3.013027    6.593115   -3.270098
C         2.074509    5.775184   -3.891507
O         0.141734    4.050141   -5.034589
C        -2.301034    2.564663   -1.631660
C        -1.880606   -1.009359    1.233623
C        -1.496143   -1.476773    2.540085
S        -2.351676   -3.173392    3.080761
C        -0.959729   -4.100282    3.808517
C        -0.917600   -5.586187    3.400676
H        -1.938795   -5.993391    3.514254
N        -0.012945   -6.342116    4.236077
C        -0.307062   -6.716053    5.503453
C         0.727791   -7.609117    6.168451
O        -1.311205   -6.360046    6.094495
C        -0.457839   -5.850430    1.952639
N        -1.106966   -5.180922    0.987705
C        -0.777635   -5.376538   -0.401960
O         0.440052   -6.653355    1.718991
H        -0.596837    0.829142   -0.722505
H         0.746742    1.224915   -4.774955
H        -0.805166    0.809902   -5.474634
H         0.517727   -1.128482   -4.368180
H        -1.191252   -0.991871   -3.958343
H         1.264408   -2.251400   -2.054693
H        -0.456455   -2.541953   -2.308957
H         0.593242   -1.161942    0.220257
H         0.290631   -2.894595    0.126985
H         1.438226    1.338921   -2.372051
H         2.256790   -0.200375   -2.733698
H         1.769268    0.189923   -1.067458
H         1.385018    3.659598   -1.306230
H         4.113282    7.002578   -1.450778
H         3.470212    7.419141   -3.818750
H         1.773968    5.934236   -4.928400
H        -1.486050    3.098267   -1.119754
H        -2.989745    2.175721   -0.873083
H        -2.834199    3.291751   -2.266824
H        -1.788882   -0.774488    3.330096
H        -0.432535   -1.750175    2.647032
H        -1.036464   -4.073847    4.903399
H        -0.014670   -3.609761    3.518155
H         0.730286   -6.795907    3.709798
H         1.552417   -7.901108    5.503812
H         0.222385   -8.509963    6.543392
H         1.138465   -7.077603    7.038883
H        -1.762955   -4.445103    1.279264
H        -1.048831   -6.390153   -0.739261
H         0.301110   -5.244579   -0.579660
H        -1.327271   -4.640235   -1.001819
