-1 1
 OpenBabel05192410563D

 74 77  0  0  1  0  0  0  0  0999 V2000
   -3.6385    0.5797    1.7280 O   0  0  0  0  0  0  0  0  0  0  0  0
   -2.9323   -0.0994    1.0046 C   0  0  0  0  0  0  0  0  0  0  0  0
   -3.1283   -0.0007   -0.3984 O   0  0  0  0  0  0  0  0  0  0  0  0
   -2.0843   -0.6620   -1.0697 C   0  0  1  0  0  0  0  0  0  0  0  0
   -2.5290   -1.1822   -1.9392 H   0  0  0  0  0  0  0  0  0  0  0  0
   -1.0306    0.3340   -1.6077 C   0  0  2  0  0  0  0  0  0  0  0  0
   -1.7421    1.4143   -2.4719 C   0  0  2  0  0  0  0  0  0  0  0  0
   -2.5990    0.9118   -2.9578 H   0  0  0  0  0  0  0  0  0  0  0  0
   -0.9368    1.9633   -3.6499 C   0  0  2  0  0  0  0  0  0  0  0  0
   -1.6034    2.5738   -4.2758 H   0  0  0  0  0  0  0  0  0  0  0  0
   -0.2669    0.8838   -4.5176 C   0  0  0  0  0  0  0  0  0  0  0  0
   -0.2150   -0.4896   -3.8462 C   0  0  0  0  0  0  0  0  0  0  0  0
    0.1191   -0.4301   -2.3487 C   0  0  2  0  0  0  0  0  0  0  0  0
    0.2601   -1.8721   -1.8002 C   0  0  0  0  0  0  0  0  0  0  0  0
   -0.0080   -1.9255   -0.3011 C   0  0  0  0  0  0  0  0  0  0  0  0
   -1.4957   -1.6642   -0.0526 C   0  0  1  0  0  0  0  0  0  0  0  0
   -2.0238   -2.6373   -0.1987 H   0  0  0  0  0  0  0  0  0  0  0  0
    1.4688    0.2723   -2.1233 C   0  0  0  0  0  0  0  0  0  0  0  0
    0.0498    2.8795   -3.1224 O   0  0  0  0  0  0  0  0  0  0  0  0
    0.4893    3.8594   -3.8943 C   0  0  0  0  0  0  0  0  0  0  0  0
    1.4936    4.7198   -3.1849 C   0  0  0  0  0  0  0  0  0  0  0  0
    1.8471    4.4821   -1.8531 C   0  0  0  0  0  0  0  0  0  0  0  0
    2.7887    5.3095   -1.2483 C   0  0  0  0  0  0  0  0  0  0  0  0
    3.2800    4.9946    0.5555 Br  0  0  0  0  0  0  0  0  0  0  0  0
    3.3774    6.3652   -1.9436 C   0  0  0  0  0  0  0  0  0  0  0  0
    3.0130    6.5931   -3.2701 C   0  0  0  0  0  0  0  0  0  0  0  0
    2.0745    5.7752   -3.8915 C   0  0  0  0  0  0  0  0  0  0  0  0
    0.1417    4.0501   -5.0346 O   0  0  0  0  0  0  0  0  0  0  0  0
   -2.3010    2.5647   -1.6317 C   0  0  0  0  0  0  0  0  0  0  0  0
   -1.8806   -1.0094    1.2336 C   0  0  2  0  0  3  0  0  0  0  0  0
   -1.4961   -1.4768    2.5401 C   0  0  0  0  0  0  0  0  0  0  0  0
   -2.3517   -3.1734    3.0808 S   0  0  0  0  0  0  0  0  0  0  0  0
   -0.9597   -4.1003    3.8085 C   0  0  0  0  0  0  0  0  0  0  0  0
   -0.9176   -5.5862    3.4007 C   0  0  2  0  0  0  0  0  0  0  0  0
   -1.9388   -5.9934    3.5143 H   0  0  0  0  0  0  0  0  0  0  0  0
   -0.0129   -6.3421    4.2361 N   0  0  0  0  0  0  0  0  0  0  0  0
   -0.3071   -6.7161    5.5035 C   0  0  0  0  0  0  0  0  0  0  0  0
    0.7278   -7.6091    6.1685 C   0  0  0  0  0  0  0  0  0  0  0  0
   -1.3112   -6.3600    6.0945 O   0  0  0  0  0  0  0  0  0  0  0  0
   -0.4578   -5.8504    1.9526 C   0  0  0  0  0  0  0  0  0  0  0  0
   -1.1070   -5.1809    0.9877 N   0  0  0  0  0  0  0  0  0  0  0  0
   -0.7776   -5.3765   -0.4020 C   0  0  0  0  0  0  0  0  0  0  0  0
    0.4401   -6.6534    1.7190 O   0  0  0  0  0  0  0  0  0  0  0  0
   -0.5968    0.8291   -0.7225 H   0  0  0  0  0  0  0  0  0  0  0  0
    0.7467    1.2249   -4.7750 H   0  0  0  0  0  0  0  0  0  0  0  0
   -0.8052    0.8099   -5.4746 H   0  0  0  0  0  0  0  0  0  0  0  0
    0.5177   -1.1285   -4.3682 H   0  0  0  0  0  0  0  0  0  0  0  0
   -1.1913   -0.9919   -3.9583 H   0  0  0  0  0  0  0  0  0  0  0  0
    1.2644   -2.2514   -2.0547 H   0  0  0  0  0  0  0  0  0  0  0  0
   -0.4565   -2.5420   -2.3090 H   0  0  0  0  0  0  0  0  0  0  0  0
    0.5932   -1.1619    0.2203 H   0  0  0  0  0  0  0  0  0  0  0  0
    0.2906   -2.8946    0.1270 H   0  0  0  0  0  0  0  0  0  0  0  0
    1.4382    1.3389   -2.3721 H   0  0  0  0  0  0  0  0  0  0  0  0
    2.2568   -0.2004   -2.7337 H   0  0  0  0  0  0  0  0  0  0  0  0
    1.7693    0.1899   -1.0675 H   0  0  0  0  0  0  0  0  0  0  0  0
    1.3850    3.6596   -1.3062 H   0  0  0  0  0  0  0  0  0  0  0  0
    4.1133    7.0026   -1.4508 H   0  0  0  0  0  0  0  0  0  0  0  0
    3.4702    7.4191   -3.8188 H   0  0  0  0  0  0  0  0  0  0  0  0
    1.7740    5.9342   -4.9284 H   0  0  0  0  0  0  0  0  0  0  0  0
   -1.4861    3.0983   -1.1198 H   0  0  0  0  0  0  0  0  0  0  0  0
   -2.9897    2.1757   -0.8731 H   0  0  0  0  0  0  0  0  0  0  0  0
   -2.8342    3.2918   -2.2668 H   0  0  0  0  0  0  0  0  0  0  0  0
   -1.7889   -0.7745    3.3301 H   0  0  0  0  0  0  0  0  0  0  0  0
   -0.4325   -1.7502    2.6470 H   0  0  0  0  0  0  0  0  0  0  0  0
   -1.0365   -4.0738    4.9034 H   0  0  0  0  0  0  0  0  0  0  0  0
   -0.0147   -3.6098    3.5182 H   0  0  0  0  0  0  0  0  0  0  0  0
    0.7303   -6.7959    3.7098 H   0  0  0  0  0  0  0  0  0  0  0  0
    1.5524   -7.9011    5.5038 H   0  0  0  0  0  0  0  0  0  0  0  0
    0.2224   -8.5100    6.5434 H   0  0  0  0  0  0  0  0  0  0  0  0
    1.1385   -7.0776    7.0389 H   0  0  0  0  0  0  0  0  0  0  0  0
   -1.7630   -4.4451    1.2793 H   0  0  0  0  0  0  0  0  0  0  0  0
   -1.0488   -6.3902   -0.7393 H   0  0  0  0  0  0  0  0  0  0  0  0
    0.3011   -5.2446   -0.5797 H   0  0  0  0  0  0  0  0  0  0  0  0
   -1.3273   -4.6402   -1.0018 H   0  0  0  0  0  0  0  0  0  0  0  0
  2 30  1  0  0  0  0
  2  1  2  0  0  0  0
  3  2  1  0  0  0  0
  4  5  1  6  0  0  0
  4  3  1  0  0  0  0
  4 16  1  0  0  0  0
  6  4  1  0  0  0  0
  6 44  1  1  0  0  0
  7  8  1  6  0  0  0
  7 29  1  0  0  0  0
  7  6  1  0  0  0  0
  9 10  1  6  0  0  0
  9 19  1  0  0  0  0
  9  7  1  0  0  0  0
 11 12  1  0  0  0  0
 11  9  1  0  0  0  0
 12 13  1  0  0  0  0
 13 18  1  1  0  0  0
 13 14  1  0  0  0  0
 13  6  1  0  0  0  0
 14 15  1  0  0  0  0
 15 16  1  0  0  0  0
 15 52  1  0  0  0  0
 15 51  1  0  0  0  0
 16 17  1  6  0  0  0
 16 30  1  0  0  0  0
 18 55  1  0  0  0  0
 20 21  1  0  0  0  0
 20 19  1  0  0  0  0
 21 22  1  0  0  0  0
 22 56  1  0  0  0  0
 22 23  2  0  0  0  0
 23 24  1  0  0  0  0
 25 57  1  0  0  0  0
 25 23  1  0  0  0  0
 26 25  2  0  0  0  0
 27 26  1  0  0  0  0
 27 21  2  0  0  0  0
 28 20  2  0  0  0  0
 29 60  1  0  0  0  0
 29 61  1  0  0  0  0
 30 31  1  1  0  0  0
 31 64  1  0  0  0  0
 31 32  1  0  0  0  0
 31 63  1  0  0  0  0
 32 33  1  0  0  0  0
 33 65  1  0  0  0  0
 34 35  1  1  0  0  0
 34 33  1  0  0  0  0
 34 36  1  0  0  0  0
 36 37  1  0  0  0  0
 37 39  2  0  0  0  0
 37 38  1  0  0  0  0
 38 69  1  0  0  0  0
 38 70  1  0  0  0  0
 40 34  1  0  0  0  0
 41 71  1  0  0  0  0
 41 40  1  0  0  0  0
 42 41  1  0  0  0  0
 43 40  2  0  0  0  0
 45 11  1  0  0  0  0
 46 11  1  0  0  0  0
 47 12  1  0  0  0  0
 48 12  1  0  0  0  0
 49 14  1  0  0  0  0
 50 14  1  0  0  0  0
 53 18  1  0  0  0  0
 54 18  1  0  0  0  0
 58 26  1  0  0  0  0
 59 27  1  0  0  0  0
 62 29  1  0  0  0  0
 66 33  1  0  0  0  0
 67 36  1  0  0  0  0
 68 38  1  0  0  0  0
 72 42  1  0  0  0  0
 73 42  1  0  0  0  0
 74 42  1  0  0  0  0
M  END
