-1 1
 OpenBabel05232414493D

 74 76  0  0  1  0  0  0  0  0999 V2000
   -6.9807    4.8800   -4.2446 O   0  0  0  0  0  0  0  0  0  0  0  0
   -6.2178    4.1892   -4.8819 C   0  0  0  0  0  0  0  0  0  0  0  0
   -6.2978    4.2061   -6.2813 O   0  0  0  0  0  0  0  0  0  0  0  0
   -5.1921    3.5284   -6.8430 C   0  0  1  0  0  0  0  0  0  0  0  0
   -5.5690    2.9648   -7.7156 H   0  0  0  0  0  0  0  0  0  0  0  0
   -4.1090    4.5097   -7.3397 C   0  0  2  0  0  0  0  0  0  0  0  0
   -4.7473    5.5412   -8.3138 C   0  0  2  0  0  0  0  0  0  0  0  0
   -5.5436    5.0048   -8.8624 H   0  0  0  0  0  0  0  0  0  0  0  0
   -3.8318    6.0565   -9.4246 C   0  0  2  0  0  0  0  0  0  0  0  0
   -4.4360    6.6405  -10.1337 H   0  0  0  0  0  0  0  0  0  0  0  0
   -3.0765    4.9524  -10.1839 C   0  0  0  0  0  0  0  0  0  0  0  0
   -3.0891    3.6044   -9.4620 C   0  0  0  0  0  0  0  0  0  0  0  0
   -2.8967    3.7180   -7.9427 C   0  0  2  0  0  0  0  0  0  0  0  0
   -2.8104    2.2945   -7.3381 C   0  0  0  0  0  0  0  0  0  0  0  0
   -3.1917    2.2810   -5.8625 C   0  0  0  0  0  0  0  0  0  0  0  0
   -4.6835    2.5866   -5.7342 C   0  0  1  0  0  0  0  0  0  0  0  0
   -5.2295    1.6264   -5.8381 H   0  0  0  0  0  0  0  0  0  0  0  0
   -1.5731    4.4306   -7.6176 C   0  0  0  0  0  0  0  0  0  0  0  0
   -2.9073    6.9949   -8.8310 O   0  0  0  0  0  0  0  0  0  0  0  0
   -2.3942    7.9514   -9.5890 C   0  0  0  0  0  0  0  0  0  0  0  0
   -1.4649    8.8383   -8.8143 C   0  0  0  0  0  0  0  0  0  0  0  0
   -1.2405    8.6441   -7.4479 C   0  0  0  0  0  0  0  0  0  0  0  0
   -0.3628    9.4941   -6.7815 C   0  0  0  0  0  0  0  0  0  0  0  0
   -0.0471    9.2374   -4.9303 Br  0  0  0  0  0  0  0  0  0  0  0  0
    0.2882   10.5301   -7.4504 C   0  0  0  0  0  0  0  0  0  0  0  0
    0.0527   10.7148   -8.8123 C   0  0  0  0  0  0  0  0  0  0  0  0
   -0.8205    9.8737   -9.4950 C   0  0  0  0  0  0  0  0  0  0  0  0
   -2.6298    8.1010  -10.7632 O   0  0  0  0  0  0  0  0  0  0  0  0
   -5.4010    6.7174   -7.5847 C   0  0  0  0  0  0  0  0  0  0  0  0
   -5.1509    3.3105   -4.5105 C   0  0  2  0  0  3  0  0  0  0  0  0
   -4.8072    3.0049   -3.1975 C   0  0  0  0  0  3  0  0  0  0  0  0
   -5.6915    1.0816   -2.3881 S   0  0  0  0  0  1  0  0  0  0  0  0
   -4.1479    0.2313   -1.9219 C   0  0  0  0  0  0  0  0  0  0  0  0
   -4.0416   -1.2440   -2.3609 C   0  0  2  0  0  0  0  0  0  0  0  0
   -4.9675   -1.7524   -2.0378 H   0  0  0  0  0  0  0  0  0  0  0  0
   -2.9026   -1.8998   -1.7575 N   0  0  0  0  0  0  0  0  0  0  0  0
   -2.8669   -2.3137   -0.4705 C   0  0  0  0  0  0  0  0  0  0  0  0
   -1.6116   -3.0775   -0.0762 C   0  0  0  0  0  0  0  0  0  0  0  0
   -3.7495   -2.0891    0.3392 O   0  0  0  0  0  0  0  0  0  0  0  0
   -3.8814   -1.4614   -3.8772 C   0  0  0  0  0  0  0  0  0  0  0  0
   -4.8173   -0.8934   -4.6540 N   0  0  0  0  0  0  0  0  0  0  0  0
   -4.7892   -1.0501   -6.0849 C   0  0  0  0  0  0  0  0  0  0  0  0
   -2.9636   -2.1448   -4.3229 O   0  0  0  0  0  0  0  0  0  0  0  0
   -3.7507    5.0521   -6.4480 H   0  0  0  0  0  0  0  0  0  0  0  0
   -2.0431    5.2901  -10.3510 H   0  0  0  0  0  0  0  0  0  0  0  0
   -3.5169    4.8419  -11.1862 H   0  0  0  0  0  0  0  0  0  0  0  0
   -2.3108    2.9490   -9.8883 H   0  0  0  0  0  0  0  0  0  0  0  0
   -4.0502    3.0948   -9.6485 H   0  0  0  0  0  0  0  0  0  0  0  0
   -1.7923    1.9028   -7.4998 H   0  0  0  0  0  0  0  0  0  0  0  0
   -3.4884    1.6123   -7.8814 H   0  0  0  0  0  0  0  0  0  0  0  0
   -2.6053    3.0348   -5.3112 H   0  0  0  0  0  0  0  0  0  0  0  0
   -2.9592    1.3093   -5.3988 H   0  0  0  0  0  0  0  0  0  0  0  0
   -1.5797    5.4874   -7.9067 H   0  0  0  0  0  0  0  0  0  0  0  0
   -0.7329    3.9379   -8.1349 H   0  0  0  0  0  0  0  0  0  0  0  0
   -1.3713    4.3871   -6.5363 H   0  0  0  0  0  0  0  0  0  0  0  0
   -1.7509    7.8369   -6.9218 H   0  0  0  0  0  0  0  0  0  0  0  0
    0.9724   11.1860   -6.9097 H   0  0  0  0  0  0  0  0  0  0  0  0
    0.5593   11.5253   -9.3403 H   0  0  0  0  0  0  0  0  0  0  0  0
   -1.0197    9.9991  -10.5605 H   0  0  0  0  0  0  0  0  0  0  0  0
   -4.6488    7.2800   -7.0116 H   0  0  0  0  0  0  0  0  0  0  0  0
   -6.1666    6.3575   -6.8885 H   0  0  0  0  0  0  0  0  0  0  0  0
   -5.8664    7.4126   -8.3029 H   0  0  0  0  0  0  0  0  0  0  0  0
   -5.2011    3.6734   -2.4278 H   0  0  0  0  0  0  0  0  0  0  0  0
   -3.7959    2.6328   -2.9977 H   0  0  0  0  0  0  0  0  0  0  0  0
   -4.0510    0.2303   -0.8278 H   0  0  0  0  0  0  0  0  0  0  0  0
   -3.2811    0.7826   -2.3324 H   0  0  0  0  0  0  0  0  0  0  0  0
   -2.2395   -2.2546   -2.4427 H   0  0  0  0  0  0  0  0  0  0  0  0
   -0.9339   -3.2797   -0.9171 H   0  0  0  0  0  0  0  0  0  0  0  0
   -1.9119   -4.0263    0.3897 H   0  0  0  0  0  0  0  0  0  0  0  0
   -1.0741   -2.4941    0.6853 H   0  0  0  0  0  0  0  0  0  0  0  0
   -5.4313   -0.1966   -4.2020 H   0  0  0  0  0  0  0  0  0  0  0  0
   -4.6137   -2.1039   -6.3468 H   0  0  0  0  0  0  0  0  0  0  0  0
   -3.9900   -0.4536   -6.5575 H   0  0  0  0  0  0  0  0  0  0  0  0
   -5.7537   -0.7304   -6.5009 H   0  0  0  0  0  0  0  0  0  0  0  0
  2 30  1  0  0  0  0
  2  1  2  0  0  0  0
  3  2  1  0  0  0  0
  4  5  1  6  0  0  0
  4  3  1  0  0  0  0
  4 16  1  0  0  0  0
  6  4  1  0  0  0  0
  6 44  1  1  0  0  0
  7  8  1  6  0  0  0
  7 29  1  0  0  0  0
  7  6  1  0  0  0  0
  9 10  1  6  0  0  0
  9 19  1  0  0  0  0
  9  7  1  0  0  0  0
 11 12  1  0  0  0  0
 11  9  1  0  0  0  0
 12 13  1  0  0  0  0
 13 18  1  1  0  0  0
 13  6  1  0  0  0  0
 13 14  1  0  0  0  0
 14 15  1  0  0  0  0
 15 16  1  0  0  0  0
 15 52  1  0  0  0  0
 15 51  1  0  0  0  0
 16 17  1  6  0  0  0
 16 30  1  0  0  0  0
 18 55  1  0  0  0  0
 20 19  1  0  0  0  0
 20 21  1  0  0  0  0
 21 22  1  0  0  0  0
 22 56  1  0  0  0  0
 22 23  2  0  0  0  0
 23 24  1  0  0  0  0
 25 57  1  0  0  0  0
 25 23  1  0  0  0  0
 26 25  2  0  0  0  0
 27 21  2  0  0  0  0
 27 26  1  0  0  0  0
 28 20  2  0  0  0  0
 29 60  1  0  0  0  0
 29 61  1  0  0  0  0
 30 31  1  1  0  0  0
 31 64  1  0  0  0  0
 31 63  1  0  0  0  0
 32 33  1  0  0  0  0
 33 65  1  0  0  0  0
 34 35  1  1  0  0  0
 34 33  1  0  0  0  0
 34 36  1  0  0  0  0
 36 37  1  0  0  0  0
 37 38  1  0  0  0  0
 37 39  2  0  0  0  0
 38 69  1  0  0  0  0
 38 70  1  0  0  0  0
 40 34  1  0  0  0  0
 41 71  1  0  0  0  0
 41 40  1  0  0  0  0
 42 41  1  0  0  0  0
 43 40  2  0  0  0  0
 45 11  1  0  0  0  0
 46 11  1  0  0  0  0
 47 12  1  0  0  0  0
 48 12  1  0  0  0  0
 49 14  1  0  0  0  0
 50 14  1  0  0  0  0
 53 18  1  0  0  0  0
 54 18  1  0  0  0  0
 58 26  1  0  0  0  0
 59 27  1  0  0  0  0
 62 29  1  0  0  0  0
 66 33  1  0  0  0  0
 67 36  1  0  0  0  0
 68 38  1  0  0  0  0
 72 42  1  0  0  0  0
 73 42  1  0  0  0  0
 74 42  1  0  0  0  0
M  END
