85
-1 1
O         5.330912   -7.631981    3.099522
C         4.459928   -7.901856    2.290291
O         3.401063   -7.052924    2.128597
C         2.422180   -7.675434    1.287599
H         1.805096   -8.324943    1.941694
C         1.506311   -6.621435    0.721535
C         0.989720   -5.629301    1.467089
C         0.142437   -4.708382    0.626186
H        -0.786724   -4.389789    1.120683
C        -0.095242   -5.493133   -0.660004
C         0.964984   -6.619861   -0.697514
C         2.026232   -6.426541   -1.811824
O         1.341808   -6.151440   -3.077524
C         0.449371   -6.963210   -3.633804
C        -0.047008   -6.375224   -4.934130
O         0.064945   -8.013201   -3.181523
C         2.904499   -7.665053   -2.017197
C         3.859100   -7.985033   -0.873195
C         3.236716   -8.617313    0.379637
H         2.611538   -9.475528    0.079675
C         2.864251   -5.176324   -1.597856
O         0.921889   -3.525045    0.364528
C         0.873465   -2.517026    1.255849
C         2.158118   -1.797855    1.372402
C         3.315811   -2.351438    0.967181
C         4.681380   -1.860991    1.170975
C         5.742250   -2.632828    0.671096
C         7.062785   -2.243841    0.867925
C         7.367436   -1.075571    1.574563
C         8.802264   -0.693274    1.825087
C         6.307839   -0.297959    2.063161
C         4.985767   -0.681117    1.867608
O        -0.104524   -2.261373    1.918168
C         1.235342   -5.308007    2.908838
C         4.322503   -8.996723    1.363647
C         5.194881  -10.055633    1.304987
S         7.280682   -9.774804   -0.063153
C         7.821334   -8.291327    0.849385
C         7.174657   -6.983714    0.350316
H         6.106186   -6.997405    0.609750
N         7.311653   -6.896690   -1.079493
C         6.657216   -5.977945   -1.809760
C         6.701642   -6.177692   -3.311919
O         6.026642   -5.050417   -1.317434
C         7.804005   -5.781730    1.064882
N         7.275879   -5.566236    2.293648
C         7.784964   -4.565878    3.192675
O         8.718743   -5.127443    0.588590
H        -0.057243   -4.835911   -1.538681
H        -1.100942   -5.936248   -0.628003
H         0.476897   -7.583360   -0.905503
H        -0.733747   -7.078690   -5.417922
H         0.802830   -6.153062   -5.594192
H        -0.562924   -5.425094   -4.733491
H         3.493338   -7.480850   -2.931045
H         2.259012   -8.532616   -2.222455
H         4.416800   -7.082560   -0.582586
H         4.625544   -8.688972   -1.232894
H         2.231689   -4.279820   -1.587106
H         3.624178   -5.074249   -2.383327
H         3.397554   -5.229345   -0.641108
H         2.107906   -0.861421    1.932462
H         3.246380   -3.310201    0.446854
H         5.552340   -3.555648    0.115829
H         7.860139   -2.891942    0.491340
H         9.274884   -1.403810    2.522425
H         8.887676    0.314173    2.257884
H         9.389030   -0.722148    0.894703
H         6.525163    0.621143    2.615260
H         4.182950   -0.059228    2.271016
H         1.589055   -6.178029    3.474513
H         0.322355   -4.904919    3.372486
H         2.016495   -4.535616    3.001842
H         4.958906  -10.924473    0.690133
H         5.860396  -10.228650    2.151032
H         8.915820   -8.190555    0.764946
H         7.575788   -8.393367    1.915926
H         7.593319   -7.773751   -1.516381
H         5.735297   -6.595570   -3.633880
H         7.504249   -6.854617   -3.634252
H         6.822575   -5.199101   -3.794090
H         6.533624   -6.186845    2.625406
H         8.076433   -5.012006    4.157563
H         7.043156   -3.772624    3.382117
H         8.668947   -4.108581    2.728756
