-1 1
 OpenBabel05192410563D

 85 88  0  0  1  0  0  0  0  0999 V2000
    1.2369   -1.9770    2.8183 O   0  0  0  0  0  0  0  0  0  0  0  0
    0.3636   -2.2654    1.9756 C   0  0  0  0  0  0  0  0  0  0  0  0
   -0.6948   -1.3692    1.8135 O   0  0  0  0  0  0  0  0  0  0  0  0
   -1.6838   -2.0269    1.0344 C   0  0  1  0  0  0  0  0  0  0  0  0
   -2.2612   -2.6832    1.7215 H   0  0  0  0  0  0  0  0  0  0  0  0
   -2.6548   -1.0105    0.4882 C   0  0  0  0  0  0  0  0  0  0  0  0
   -3.1629   -0.0116    1.2317 C   0  0  0  0  0  0  0  0  0  0  0  0
   -4.0657    0.8704    0.4091 C   0  0  2  0  0  0  0  0  0  0  0  0
   -4.9786    1.1888    0.9338 H   0  0  0  0  0  0  0  0  0  0  0  0
   -4.3412    0.0537   -0.8483 C   0  0  0  0  0  0  0  0  0  0  0  0
   -3.2627   -1.0548   -0.9026 C   0  0  1  0  0  0  0  0  0  0  0  0
   -2.2516   -0.8762   -2.0639 C   0  0  2  0  0  0  0  0  0  0  0  0
   -2.9885   -0.6054   -3.3038 O   0  0  0  0  0  0  0  0  0  0  0  0
   -3.9126   -1.4112   -3.8108 C   0  0  0  0  0  0  0  0  0  0  0  0
   -4.4707   -0.8218   -5.0866 C   0  0  0  0  0  0  0  0  0  0  0  0
   -4.2855   -2.4563   -3.3378 O   0  0  0  0  0  0  0  0  0  0  0  0
   -1.3917   -2.1221   -2.2960 C   0  0  0  0  0  0  0  0  0  0  0  0
   -0.3667   -2.4195   -1.2064 C   0  0  0  0  0  0  0  0  0  0  0  0
   -0.8990   -2.9898    0.1180 C   0  0  1  0  0  0  0  0  0  0  0  0
   -1.5429   -3.8599   -0.1158 H   0  0  0  0  0  0  0  0  0  0  0  0
   -1.3984    0.3709   -1.8947 C   0  0  0  0  0  0  0  0  0  0  0  0
   -3.3196    2.0633    0.0807 O   0  0  0  0  0  0  0  0  0  0  0  0
   -3.3410    3.0926    0.9439 C   0  0  0  0  0  0  0  0  0  0  0  0
   -2.0407    3.7924    1.0254 C   0  0  0  0  0  0  0  0  0  0  0  0
   -0.8977    3.1907    0.6502 C   0  0  0  0  0  0  0  0  0  0  0  0
    0.4792    3.6558    0.8437 C   0  0  0  0  0  0  0  0  0  0  0  0
    1.5279    2.8391    0.3906 C   0  0  0  0  0  0  0  0  0  0  0  0
    2.8546    3.2049    0.5918 C   0  0  0  0  0  0  0  0  0  0  0  0
    3.1783    4.3943    1.2539 C   0  0  0  0  0  0  0  0  0  0  0  0
    4.6188    4.7505    1.5108 C   0  0  0  0  0  0  0  0  0  0  0  0
    2.1321    5.2170    1.6923 C   0  0  0  0  0  0  0  0  0  0  0  0
    0.8041    4.8562    1.4935 C   0  0  0  0  0  0  0  0  0  0  0  0
   -4.3037    3.3854    1.6131 O   0  0  0  0  0  0  0  0  0  0  0  0
   -2.8616    0.3486    2.6535 C   0  0  0  0  0  0  0  0  0  0  0  0
    0.2237   -3.3142    1.0795 C   0  0  1  0  0  3  0  0  0  0  0  0
    1.1963   -4.4096    0.9630 C   0  0  0  0  0  0  0  0  0  0  0  0
    2.7224   -4.1734   -0.1345 S   0  0  0  0  0  0  0  0  0  0  0  0
    3.4727   -2.7288    0.6776 C   0  0  0  0  0  0  0  0  0  0  0  0
    3.0179   -1.3672    0.1399 C   0  0  2  0  0  0  0  0  0  0  0  0
    1.9279   -1.2941    0.2377 H   0  0  0  0  0  0  0  0  0  0  0  0
    3.3496   -1.2267   -1.2544 N   0  0  0  0  0  0  0  0  0  0  0  0
    2.7327   -0.3328   -2.0552 C   0  0  0  0  0  0  0  0  0  0  0  0
    3.2398   -0.2604   -3.4817 C   0  0  0  0  0  0  0  0  0  0  0  0
    1.7942    0.3570   -1.6870 O   0  0  0  0  0  0  0  0  0  0  0  0
    3.6533   -0.2238    0.9579 C   0  0  0  0  0  0  0  0  0  0  0  0
    3.0819   -0.0317    2.1574 N   0  0  0  0  0  0  0  0  0  0  0  0
    3.5467    0.9675    3.0820 C   0  0  0  0  0  0  0  0  0  0  0  0
    4.6033    0.4161    0.5172 O   0  0  0  0  0  0  0  0  0  0  0  0
   -4.3481    0.6937   -1.7407 H   0  0  0  0  0  0  0  0  0  0  0  0
   -5.3371   -0.4052   -0.7683 H   0  0  0  0  0  0  0  0  0  0  0  0
   -3.7422   -2.0318   -1.0623 H   0  0  0  0  0  0  0  0  0  0  0  0
   -5.1616   -1.5348   -5.5504 H   0  0  0  0  0  0  0  0  0  0  0  0
   -3.6532   -0.5723   -5.7768 H   0  0  0  0  0  0  0  0  0  0  0  0
   -5.0008    0.1134   -4.8541 H   0  0  0  0  0  0  0  0  0  0  0  0
   -0.8617   -1.9612   -3.2499 H   0  0  0  0  0  0  0  0  0  0  0  0
   -2.0540   -2.9900   -2.4384 H   0  0  0  0  0  0  0  0  0  0  0  0
    0.2367   -1.5234   -1.0003 H   0  0  0  0  0  0  0  0  0  0  0  0
    0.3472   -3.1575   -1.6030 H   0  0  0  0  0  0  0  0  0  0  0  0
   -2.0265    1.2704   -1.8623 H   0  0  0  0  0  0  0  0  0  0  0  0
   -0.6718    0.4605   -2.7127 H   0  0  0  0  0  0  0  0  0  0  0  0
   -0.8277    0.3155   -0.9598 H   0  0  0  0  0  0  0  0  0  0  0  0
   -2.0683    4.7529    1.5450 H   0  0  0  0  0  0  0  0  0  0  0  0
   -0.9911    2.2101    0.1760 H   0  0  0  0  0  0  0  0  0  0  0  0
    1.3149    1.9005   -0.1294 H   0  0  0  0  0  0  0  0  0  0  0  0
    3.6475    2.5280    0.2601 H   0  0  0  0  0  0  0  0  0  0  0  0
    5.0630    4.0576    2.2436 H   0  0  0  0  0  0  0  0  0  0  0  0
    4.7231    5.7726    1.9034 H   0  0  0  0  0  0  0  0  0  0  0  0
    5.2186    4.6691    0.5918 H   0  0  0  0  0  0  0  0  0  0  0  0
    2.3635    6.1532    2.2088 H   0  0  0  0  0  0  0  0  0  0  0  0
    0.0111    5.5124    1.8599 H   0  0  0  0  0  0  0  0  0  0  0  0
   -2.3917   -0.4793    3.1961 H   0  0  0  0  0  0  0  0  0  0  0  0
   -3.7785    0.6738    3.1699 H   0  0  0  0  0  0  0  0  0  0  0  0
   -2.1501    1.1900    2.6950 H   0  0  0  0  0  0  0  0  0  0  0  0
    0.7573   -5.3246    0.5325 H   0  0  0  0  0  0  0  0  0  0  0  0
    1.6134   -4.6630    1.9487 H   0  0  0  0  0  0  0  0  0  0  0  0
    4.5666   -2.8189    0.5718 H   0  0  0  0  0  0  0  0  0  0  0  0
    3.2233   -2.7752    1.7465 H   0  0  0  0  0  0  0  0  0  0  0  0
    4.2076   -1.6521   -1.5757 H   0  0  0  0  0  0  0  0  0  0  0  0
    2.4553   -0.6518   -4.1455 H   0  0  0  0  0  0  0  0  0  0  0  0
    4.1652   -0.8277   -3.6514 H   0  0  0  0  0  0  0  0  0  0  0  0
    3.4018    0.7943   -3.7408 H   0  0  0  0  0  0  0  0  0  0  0  0
    2.3073   -0.6623    2.4472 H   0  0  0  0  0  0  0  0  0  0  0  0
    3.7422    0.5229    4.0708 H   0  0  0  0  0  0  0  0  0  0  0  0
    2.8079    1.7769    3.2044 H   0  0  0  0  0  0  0  0  0  0  0  0
    4.4762    1.4037    2.6922 H   0  0  0  0  0  0  0  0  0  0  0  0
  2  1  2  0  0  0  0
  3  2  1  0  0  0  0
  4  5  1  1  0  0  0
  4  3  1  0  0  0  0
  6  4  1  0  0  0  0
  6  7  2  0  0  0  0
  7 34  1  0  0  0  0
  8  9  1  1  0  0  0
  8  7  1  0  0  0  0
 10 50  1  0  0  0  0
 10  8  1  0  0  0  0
 11 51  1  6  0  0  0
 11 10  1  0  0  0  0
 11  6  1  0  0  0  0
 12 13  1  6  0  0  0
 12 21  1  0  0  0  0
 12 11  1  0  0  0  0
 14 16  2  0  0  0  0
 14 13  1  0  0  0  0
 15 54  1  0  0  0  0
 15 14  1  0  0  0  0
 17 12  1  0  0  0  0
 17 18  1  0  0  0  0
 18 57  1  0  0  0  0
 18 19  1  0  0  0  0
 19 20  1  6  0  0  0
 19  4  1  0  0  0  0
 19 35  1  0  0  0  0
 21 59  1  0  0  0  0
 21 61  1  0  0  0  0
 22  8  1  0  0  0  0
 22 23  1  0  0  0  0
 23 24  1  0  0  0  0
 23 33  2  0  0  0  0
 24 62  1  0  0  0  0
 25 26  1  0  0  0  0
 25 24  2  0  0  0  0
 26 32  1  0  0  0  0
 27 28  1  0  0  0  0
 27 26  2  0  0  0  0
 28 29  2  0  0  0  0
 29 30  1  0  0  0  0
 29 31  1  0  0  0  0
 30 67  1  0  0  0  0
 30 66  1  0  0  0  0
 31 69  1  0  0  0  0
 32 31  2  0  0  0  0
 32 70  1  0  0  0  0
 34 73  1  0  0  0  0
 34 72  1  0  0  0  0
 34 71  1  0  0  0  0
 35 36  1  6  0  0  0
 35  2  1  0  0  0  0
 36 75  1  0  0  0  0
 37 38  1  0  0  0  0
 37 36  1  0  0  0  0
 38 77  1  0  0  0  0
 39 40  1  1  0  0  0
 39 38  1  0  0  0  0
 39 45  1  0  0  0  0
 41 39  1  0  0  0  0
 42 44  2  0  0  0  0
 42 41  1  0  0  0  0
 43 42  1  0  0  0  0
 45 46  1  0  0  0  0
 46 82  1  0  0  0  0
 46 47  1  0  0  0  0
 47 84  1  0  0  0  0
 47 83  1  0  0  0  0
 48 45  2  0  0  0  0
 49 10  1  0  0  0  0
 52 15  1  0  0  0  0
 53 15  1  0  0  0  0
 55 17  1  0  0  0  0
 56 17  1  0  0  0  0
 58 18  1  0  0  0  0
 60 21  1  0  0  0  0
 63 25  1  0  0  0  0
 64 27  1  0  0  0  0
 65 28  1  0  0  0  0
 68 30  1  0  0  0  0
 74 36  1  0  0  0  0
 76 38  1  0  0  0  0
 78 41  1  0  0  0  0
 79 43  1  0  0  0  0
 80 43  1  0  0  0  0
 81 43  1  0  0  0  0
 85 47  1  0  0  0  0
M  END
