71
-1 1
O        -1.489359    5.644943   -5.110474
C        -2.319593    4.776270   -5.291995
O        -3.377923    5.030090   -6.135945
C        -4.278702    3.921088   -6.209202
H        -5.252018    4.293203   -5.864050
C        -4.391130    3.511896   -7.666582
C        -3.754011    2.355419   -8.146528
C        -3.002076    1.476967   -7.173295
C        -3.684880    1.453408   -5.813226
C        -3.762108    2.855402   -5.211800
H        -4.459039    2.811056   -4.352710
C        -3.817239    2.027431   -9.514624
C        -3.124386    0.807333  -10.067939
C        -4.531257    2.861397  -10.371213
C        -5.149971    3.999848   -9.878617
O        -5.891719    4.772757  -10.777022
C        -5.340455    5.880362  -11.290321
C        -6.312634    6.628796  -12.153545
C        -5.864209    7.797204  -12.776323
C        -6.722336    8.530616  -13.585571
C        -8.036544    8.095544  -13.775135
C        -8.943081    8.871387  -14.696198
F        -8.698436    8.579671  -15.981389
F       -10.234436    8.607998  -14.474867
F        -8.774589   10.191495  -14.561541
C        -8.490523    6.933481  -13.152000
C        -7.628642    6.200205  -12.340949
O        -4.212515    6.238632  -11.095409
C        -5.098098    4.367712   -8.536400
C        -5.727221    5.661554   -8.091279
C        -2.453050    3.443895   -4.766512
C        -1.634088    2.920306   -3.780394
S        -2.421658    3.332743   -1.587186
C        -2.756868    5.079426   -1.971867
C        -4.165562    5.368058   -2.534890
H        -4.475136    4.520772   -3.164655
N        -4.134105    6.551653   -3.358747
C        -5.009332    6.753927   -4.370838
C        -4.657424    7.902567   -5.291965
O        -5.980598    6.035020   -4.562070
C        -5.204959    5.496270   -1.410235
N        -5.419874    4.320724   -0.759850
C        -6.252810    4.236273    0.408127
O        -5.762745    6.540328   -1.129882
H        -1.975273    1.865538   -7.047537
H        -2.907060    0.456089   -7.569353
H        -3.142084    0.791990   -5.119513
H        -4.700134    1.033418   -5.923753
H        -2.047714    0.815020   -9.837332
H        -3.233416    0.755605  -11.160524
H        -3.537547   -0.123459   -9.646405
H        -4.608000    2.638451  -11.437806
H        -4.834215    8.115461  -12.606716
H        -6.375110    9.446603  -14.066779
H        -9.520532    6.604479  -13.295478
H        -7.972457    5.292484  -11.844807
H        -6.626322    5.885234   -8.683112
H        -5.010660    6.484204   -8.242144
H        -5.999185    5.668790   -7.027908
H        -0.683980    3.425532   -3.593737
H        -1.630768    1.843747   -3.597031
H        -2.025814    5.395701   -2.729859
H        -2.587848    5.692977   -1.071918
H        -3.279751    7.092650   -3.359988
H        -3.914263    7.527264   -6.011993
H        -4.224355    8.754774   -4.748558
H        -5.557955    8.223762   -5.829110
H        -4.758083    3.566478   -0.959902
H        -6.831821    5.166526    0.478299
H        -5.661497    4.123046    1.333587
H        -6.950438    3.385920    0.338811
