-1 1
 OpenBabel05192410563D

 71 74  0  0  1  0  0  0  0  0999 V2000
    3.8626   -0.0439    3.0731 O   0  0  0  0  0  0  0  0  0  0  0  0
    3.0245   -0.8759    2.7012 C   0  0  0  0  0  0  0  0  0  0  0  0
    2.2559   -0.5510    1.5708 O   0  0  0  0  0  0  0  0  0  0  0  0
    1.1425   -1.4342    1.4812 C   0  0  1  0  0  0  0  0  0  0  0  0
    0.2633   -0.8925    1.8590 H   0  0  0  0  0  0  0  0  0  0  0  0
    0.9322   -1.7713    0.0191 C   0  0  0  0  0  0  0  0  0  0  0  0
    1.6179   -2.8749   -0.5228 C   0  0  0  0  0  0  0  0  0  0  0  0
    2.4466   -3.7136    0.4204 C   0  0  0  0  0  0  0  0  0  0  0  0
    1.6715   -3.9571    1.7115 C   0  0  0  0  0  0  0  0  0  0  0  0
    1.4220   -2.6278    2.4414 C   0  0  1  0  0  0  0  0  0  0  0  0
    0.5380   -2.7630    3.0963 H   0  0  0  0  0  0  0  0  0  0  0  0
    1.5029   -3.1865   -1.8879 C   0  0  0  0  0  0  0  0  0  0  0  0
    2.2313   -4.3561   -2.5026 C   0  0  0  0  0  0  0  0  0  0  0  0
    0.6916   -2.3829   -2.6888 C   0  0  0  0  0  0  0  0  0  0  0  0
    0.0351   -1.2948   -2.1403 C   0  0  0  0  0  0  0  0  0  0  0  0
   -0.8050   -0.5532   -2.9785 O   0  0  0  0  0  0  0  0  0  0  0  0
   -0.3524    0.5859   -3.5155 C   0  0  0  0  0  0  0  0  0  0  0  0
   -1.4246    1.2877   -4.2962 C   0  0  0  0  0  0  0  0  0  0  0  0
   -1.0899    2.4869   -4.9315 C   0  0  0  0  0  0  0  0  0  0  0  0
   -2.0448    3.1784   -5.6658 C   0  0  0  0  0  0  0  0  0  0  0  0
   -3.3422    2.6699   -5.7679 C   0  0  0  0  0  0  0  0  0  0  0  0
   -4.3560    3.4013   -6.6100 C   0  0  0  0  0  0  0  0  0  0  0  0
   -4.1956    3.1300   -7.9130 F   0  0  0  0  0  0  0  0  0  0  0  0
   -5.6111    3.0681   -6.2938 F   0  0  0  0  0  0  0  0  0  0  0  0
   -4.2481    4.7279   -6.4765 F   0  0  0  0  0  0  0  0  0  0  0  0
   -3.6827    1.4764   -5.1319 C   0  0  0  0  0  0  0  0  0  0  0  0
   -2.7241    0.7857   -4.3957 C   0  0  0  0  0  0  0  0  0  0  0  0
    0.7658    1.0047   -3.3993 O   0  0  0  0  0  0  0  0  0  0  0  0
    0.1364   -0.9422   -0.7936 C   0  0  0  0  0  0  0  0  0  0  0  0
   -0.5494    0.3122   -0.3176 C   0  0  0  0  0  0  0  0  0  0  0  0
    2.6064   -2.1049    3.2029 C   0  0  2  0  0  3  0  0  0  0  0  0
    3.1103   -2.6813    4.4520 C   0  0  0  0  0  0  0  0  0  0  0  0
    2.1424   -2.2442    6.0340 S   0  0  0  0  0  0  0  0  0  0  0  0
    2.1470   -0.4397    5.8171 C   0  0  0  0  0  0  0  0  0  0  0  0
    0.9706    0.0930    4.9703 C   0  0  2  0  0  0  0  0  0  0  0  0
    0.6079   -0.7257    4.3284 H   0  0  0  0  0  0  0  0  0  0  0  0
    1.4083    1.1866    4.1361 N   0  0  0  0  0  0  0  0  0  0  0  0
    0.5985    1.5952    3.1238 C   0  0  0  0  0  0  0  0  0  0  0  0
    1.2617    2.4848    2.0975 C   0  0  0  0  0  0  0  0  0  0  0  0
   -0.5654    1.2284    3.0273 O   0  0  0  0  0  0  0  0  0  0  0  0
   -0.1790    0.5026    5.8954 C   0  0  0  0  0  0  0  0  0  0  0  0
   -0.9509   -0.5597    6.2661 N   0  0  0  0  0  0  0  0  0  0  0  0
   -2.0219   -0.4464    7.2168 C   0  0  0  0  0  0  0  0  0  0  0  0
   -0.3443    1.6296    6.3154 O   0  0  0  0  0  0  0  0  0  0  0  0
    3.3780   -3.1767    0.6735 H   0  0  0  0  0  0  0  0  0  0  0  0
    2.7388   -4.6635   -0.0475 H   0  0  0  0  0  0  0  0  0  0  0  0
    2.2324   -4.6332    2.3771 H   0  0  0  0  0  0  0  0  0  0  0  0
    0.7179   -4.4595    1.4682 H   0  0  0  0  0  0  0  0  0  0  0  0
    3.3193   -4.2800   -2.3506 H   0  0  0  0  0  0  0  0  0  0  0  0
    2.0472   -4.4077   -3.5853 H   0  0  0  0  0  0  0  0  0  0  0  0
    1.9098   -5.3140   -2.0630 H   0  0  0  0  0  0  0  0  0  0  0  0
    0.5673   -2.5935   -3.7535 H   0  0  0  0  0  0  0  0  0  0  0  0
   -0.0702    2.8625   -4.8310 H   0  0  0  0  0  0  0  0  0  0  0  0
   -1.7862    4.1186   -6.1561 H   0  0  0  0  0  0  0  0  0  0  0  0
   -4.6999    1.0895   -5.2065 H   0  0  0  0  0  0  0  0  0  0  0  0
   -2.9776   -0.1458   -3.8892 H   0  0  0  0  0  0  0  0  0  0  0  0
   -1.5463    0.4091   -0.7724 H   0  0  0  0  0  0  0  0  0  0  0  0
    0.0406    1.1893   -0.6289 H   0  0  0  0  0  0  0  0  0  0  0  0
   -0.6614    0.3770    0.7710 H   0  0  0  0  0  0  0  0  0  0  0  0
    4.1345   -2.3396    4.6583 H   0  0  0  0  0  0  0  0  0  0  0  0
    3.0989   -3.7839    4.4742 H   0  0  0  0  0  0  0  0  0  0  0  0
    3.0940   -0.1858    5.3197 H   0  0  0  0  0  0  0  0  0  0  0  0
    2.1513    0.0262    6.8131 H   0  0  0  0  0  0  0  0  0  0  0  0
    2.4091    1.1896    3.9216 H   0  0  0  0  0  0  0  0  0  0  0  0
    1.8562    1.8320    1.4392 H   0  0  0  0  0  0  0  0  0  0  0  0
    1.9396    3.2115    2.5663 H   0  0  0  0  0  0  0  0  0  0  0  0
    0.4914    3.0045    1.5151 H   0  0  0  0  0  0  0  0  0  0  0  0
   -0.6886   -1.4730    5.9138 H   0  0  0  0  0  0  0  0  0  0  0  0
   -2.0976    0.6113    7.5010 H   0  0  0  0  0  0  0  0  0  0  0  0
   -1.8322   -1.0440    8.1242 H   0  0  0  0  0  0  0  0  0  0  0  0
   -2.9853   -0.7640    6.7844 H   0  0  0  0  0  0  0  0  0  0  0  0
  2  1  2  0  0  0  0
  2 31  1  0  0  0  0
  3  2  1  0  0  0  0
  4  3  1  0  0  0  0
  4  5  1  1  0  0  0
  4 10  1  0  0  0  0
  6  4  1  0  0  0  0
  7  6  1  0  0  0  0
  7  8  1  0  0  0  0
  8 45  1  0  0  0  0
  8  9  1  0  0  0  0
  9 47  1  0  0  0  0
  9 10  1  0  0  0  0
 10 11  1  1  0  0  0
 10 31  1  0  0  0  0
 12  7  2  0  0  0  0
 13 49  1  0  0  0  0
 13 51  1  0  0  0  0
 13 12  1  0  0  0  0
 14 15  2  0  0  0  0
 14 12  1  0  0  0  0
 15 29  1  0  0  0  0
 16 15  1  0  0  0  0
 17 28  2  0  0  0  0
 17 16  1  0  0  0  0
 18 17  1  0  0  0  0
 19 53  1  0  0  0  0
 19 18  2  0  0  0  0
 20 19  1  0  0  0  0
 21 20  2  0  0  0  0
 21 26  1  0  0  0  0
 22 25  1  0  0  0  0
 22 24  1  0  0  0  0
 22 21  1  0  0  0  0
 23 22  1  0  0  0  0
 26 27  2  0  0  0  0
 27 18  1  0  0  0  0
 27 56  1  0  0  0  0
 29 30  1  0  0  0  0
 29  6  2  0  0  0  0
 30 59  1  0  0  0  0
 31 32  1  1  0  0  0
 32 61  1  0  0  0  0
 32 60  1  0  0  0  0
 32 33  1  0  0  0  0
 34 33  1  0  0  0  0
 34 63  1  0  0  0  0
 35 36  1  6  0  0  0
 35 34  1  0  0  0  0
 35 41  1  0  0  0  0
 37 35  1  0  0  0  0
 38 37  1  0  0  0  0
 39 66  1  0  0  0  0
 39 38  1  0  0  0  0
 40 38  2  0  0  0  0
 41 42  1  0  0  0  0
 41 44  2  0  0  0  0
 42 43  1  0  0  0  0
 43 69  1  0  0  0  0
 43 70  1  0  0  0  0
 46  8  1  0  0  0  0
 48  9  1  0  0  0  0
 50 13  1  0  0  0  0
 52 14  1  0  0  0  0
 54 20  1  0  0  0  0
 55 26  1  0  0  0  0
 57 30  1  0  0  0  0
 58 30  1  0  0  0  0
 62 34  1  0  0  0  0
 64 37  1  0  0  0  0
 65 39  1  0  0  0  0
 67 39  1  0  0  0  0
 68 42  1  0  0  0  0
 71 43  1  0  0  0  0
M  END
