-1 1
 OpenBabel05232414493D

 71 73  0  0  1  0  0  0  0  0999 V2000
   -1.4894    5.6449   -5.1105 O   0  0  0  0  0  0  0  0  0  0  0  0
   -2.3196    4.7763   -5.2920 C   0  0  0  0  0  0  0  0  0  0  0  0
   -3.3779    5.0301   -6.1359 O   0  0  0  0  0  0  0  0  0  0  0  0
   -4.2787    3.9211   -6.2092 C   0  0  1  0  0  0  0  0  0  0  0  0
   -5.2520    4.2932   -5.8640 H   0  0  0  0  0  0  0  0  0  0  0  0
   -4.3911    3.5119   -7.6666 C   0  0  0  0  0  0  0  0  0  0  0  0
   -3.7540    2.3554   -8.1465 C   0  0  0  0  0  0  0  0  0  0  0  0
   -3.0021    1.4770   -7.1733 C   0  0  0  0  0  0  0  0  0  0  0  0
   -3.6849    1.4534   -5.8132 C   0  0  0  0  0  0  0  0  0  0  0  0
   -3.7621    2.8554   -5.2118 C   0  0  1  0  0  0  0  0  0  0  0  0
   -4.4590    2.8111   -4.3527 H   0  0  0  0  0  0  0  0  0  0  0  0
   -3.8172    2.0274   -9.5146 C   0  0  0  0  0  0  0  0  0  0  0  0
   -3.1244    0.8073  -10.0679 C   0  0  0  0  0  0  0  0  0  0  0  0
   -4.5313    2.8614  -10.3712 C   0  0  0  0  0  0  0  0  0  0  0  0
   -5.1500    3.9998   -9.8786 C   0  0  0  0  0  0  0  0  0  0  0  0
   -5.8917    4.7728  -10.7770 O   0  0  0  0  0  0  0  0  0  0  0  0
   -5.3405    5.8804  -11.2903 C   0  0  0  0  0  0  0  0  0  0  0  0
   -6.3126    6.6288  -12.1535 C   0  0  0  0  0  0  0  0  0  0  0  0
   -5.8642    7.7972  -12.7763 C   0  0  0  0  0  0  0  0  0  0  0  0
   -6.7223    8.5306  -13.5856 C   0  0  0  0  0  0  0  0  0  0  0  0
   -8.0365    8.0955  -13.7751 C   0  0  0  0  0  0  0  0  0  0  0  0
   -8.9431    8.8714  -14.6962 C   0  0  0  0  0  0  0  0  0  0  0  0
   -8.6984    8.5797  -15.9814 F   0  0  0  0  0  0  0  0  0  0  0  0
  -10.2344    8.6080  -14.4749 F   0  0  0  0  0  0  0  0  0  0  0  0
   -8.7746   10.1915  -14.5615 F   0  0  0  0  0  0  0  0  0  0  0  0
   -8.4905    6.9335  -13.1520 C   0  0  0  0  0  0  0  0  0  0  0  0
   -7.6286    6.2002  -12.3409 C   0  0  0  0  0  0  0  0  0  0  0  0
   -4.2125    6.2386  -11.0954 O   0  0  0  0  0  0  0  0  0  0  0  0
   -5.0981    4.3677   -8.5364 C   0  0  0  0  0  0  0  0  0  0  0  0
   -5.7272    5.6616   -8.0913 C   0  0  0  0  0  0  0  0  0  0  0  0
   -2.4531    3.4439   -4.7665 C   0  0  2  0  0  3  0  0  0  0  0  0
   -1.6341    2.9203   -3.7804 C   0  0  0  0  0  3  0  0  0  0  0  0
   -2.4217    3.3327   -1.5872 S   0  0  0  0  0  1  0  0  0  0  0  0
   -2.7569    5.0794   -1.9719 C   0  0  0  0  0  0  0  0  0  0  0  0
   -4.1656    5.3681   -2.5349 C   0  0  2  0  0  0  0  0  0  0  0  0
   -4.4751    4.5208   -3.1647 H   0  0  0  0  0  0  0  0  0  0  0  0
   -4.1341    6.5517   -3.3587 N   0  0  0  0  0  0  0  0  0  0  0  0
   -5.0093    6.7539   -4.3708 C   0  0  0  0  0  0  0  0  0  0  0  0
   -4.6574    7.9026   -5.2920 C   0  0  0  0  0  0  0  0  0  0  0  0
   -5.9806    6.0350   -4.5621 O   0  0  0  0  0  0  0  0  0  0  0  0
   -5.2050    5.4963   -1.4102 C   0  0  0  0  0  0  0  0  0  0  0  0
   -5.4199    4.3207   -0.7599 N   0  0  0  0  0  0  0  0  0  0  0  0
   -6.2528    4.2363    0.4081 C   0  0  0  0  0  0  0  0  0  0  0  0
   -5.7627    6.5403   -1.1299 O   0  0  0  0  0  0  0  0  0  0  0  0
   -1.9753    1.8655   -7.0475 H   0  0  0  0  0  0  0  0  0  0  0  0
   -2.9071    0.4561   -7.5694 H   0  0  0  0  0  0  0  0  0  0  0  0
   -3.1421    0.7920   -5.1195 H   0  0  0  0  0  0  0  0  0  0  0  0
   -4.7001    1.0334   -5.9238 H   0  0  0  0  0  0  0  0  0  0  0  0
   -2.0477    0.8150   -9.8373 H   0  0  0  0  0  0  0  0  0  0  0  0
   -3.2334    0.7556  -11.1605 H   0  0  0  0  0  0  0  0  0  0  0  0
   -3.5375   -0.1235   -9.6464 H   0  0  0  0  0  0  0  0  0  0  0  0
   -4.6080    2.6385  -11.4378 H   0  0  0  0  0  0  0  0  0  0  0  0
   -4.8342    8.1155  -12.6067 H   0  0  0  0  0  0  0  0  0  0  0  0
   -6.3751    9.4466  -14.0668 H   0  0  0  0  0  0  0  0  0  0  0  0
   -9.5205    6.6045  -13.2955 H   0  0  0  0  0  0  0  0  0  0  0  0
   -7.9725    5.2925  -11.8448 H   0  0  0  0  0  0  0  0  0  0  0  0
   -6.6263    5.8852   -8.6831 H   0  0  0  0  0  0  0  0  0  0  0  0
   -5.0107    6.4842   -8.2421 H   0  0  0  0  0  0  0  0  0  0  0  0
   -5.9992    5.6688   -7.0279 H   0  0  0  0  0  0  0  0  0  0  0  0
   -0.6840    3.4255   -3.5937 H   0  0  0  0  0  0  0  0  0  0  0  0
   -1.6308    1.8437   -3.5970 H   0  0  0  0  0  0  0  0  0  0  0  0
   -2.0258    5.3957   -2.7299 H   0  0  0  0  0  0  0  0  0  0  0  0
   -2.5878    5.6930   -1.0719 H   0  0  0  0  0  0  0  0  0  0  0  0
   -3.2798    7.0926   -3.3600 H   0  0  0  0  0  0  0  0  0  0  0  0
   -3.9143    7.5273   -6.0120 H   0  0  0  0  0  0  0  0  0  0  0  0
   -4.2244    8.7548   -4.7486 H   0  0  0  0  0  0  0  0  0  0  0  0
   -5.5580    8.2238   -5.8291 H   0  0  0  0  0  0  0  0  0  0  0  0
   -4.7581    3.5665   -0.9599 H   0  0  0  0  0  0  0  0  0  0  0  0
   -6.8318    5.1665    0.4783 H   0  0  0  0  0  0  0  0  0  0  0  0
   -5.6615    4.1230    1.3336 H   0  0  0  0  0  0  0  0  0  0  0  0
   -6.9504    3.3859    0.3388 H   0  0  0  0  0  0  0  0  0  0  0  0
  2  1  2  0  0  0  0
  2 31  1  0  0  0  0
  3  2  1  0  0  0  0
  4  3  1  0  0  0  0
  4  5  1  1  0  0  0
  4 10  1  0  0  0  0
  6  4  1  0  0  0  0
  7  6  1  0  0  0  0
  7  8  1  0  0  0  0
  8 45  1  0  0  0  0
  8  9  1  0  0  0  0
  9 10  1  0  0  0  0
  9 47  1  0  0  0  0
 10 31  1  0  0  0  0
 10 11  1  1  0  0  0
 12  7  2  0  0  0  0
 13 49  1  0  0  0  0
 13 51  1  0  0  0  0
 13 12  1  0  0  0  0
 14 15  2  0  0  0  0
 14 12  1  0  0  0  0
 15 29  1  0  0  0  0
 16 15  1  0  0  0  0
 17 28  2  0  0  0  0
 17 16  1  0  0  0  0
 18 17  1  0  0  0  0
 19 53  1  0  0  0  0
 19 18  2  0  0  0  0
 20 19  1  0  0  0  0
 21 20  2  0  0  0  0
 21 26  1  0  0  0  0
 22 25  1  0  0  0  0
 22 24  1  0  0  0  0
 22 21  1  0  0  0  0
 23 22  1  0  0  0  0
 26 27  2  0  0  0  0
 27 18  1  0  0  0  0
 27 56  1  0  0  0  0
 29 30  1  0  0  0  0
 29  6  2  0  0  0  0
 30 59  1  0  0  0  0
 31 32  1  1  0  0  0
 32 61  1  0  0  0  0
 32 60  1  0  0  0  0
 34 33  1  0  0  0  0
 34 63  1  0  0  0  0
 35 36  1  6  0  0  0
 35 34  1  0  0  0  0
 35 41  1  0  0  0  0
 37 35  1  0  0  0  0
 38 37  1  0  0  0  0
 39 66  1  0  0  0  0
 39 38  1  0  0  0  0
 40 38  2  0  0  0  0
 41 44  2  0  0  0  0
 41 42  1  0  0  0  0
 42 43  1  0  0  0  0
 43 69  1  0  0  0  0
 43 70  1  0  0  0  0
 46  8  1  0  0  0  0
 48  9  1  0  0  0  0
 50 13  1  0  0  0  0
 52 14  1  0  0  0  0
 54 20  1  0  0  0  0
 55 26  1  0  0  0  0
 57 30  1  0  0  0  0
 58 30  1  0  0  0  0
 62 34  1  0  0  0  0
 64 37  1  0  0  0  0
 65 39  1  0  0  0  0
 67 39  1  0  0  0  0
 68 42  1  0  0  0  0
 71 43  1  0  0  0  0
M  END
