-1 1
 OpenBabel05232414493D

 82 85  0  0  1  0  0  0  0  0999 V2000
    0.9931    7.6040   -3.1264 O   0  0  0  0  0  0  0  0  0  0  0  0
    0.5863    7.6370   -1.9836 C   0  0  0  0  0  0  0  0  0  0  0  0
   -0.1731    6.5723   -1.5052 O   0  0  0  0  0  0  0  0  0  0  0  0
   -0.3555    6.6767   -0.1120 C   0  0  1  0  0  0  0  0  0  0  0  0
   -1.4263    6.4985    0.0936 H   0  0  0  0  0  0  0  0  0  0  0  0
    0.3677    5.5733    0.6187 C   0  0  0  0  0  0  0  0  0  0  0  0
    1.2458    4.6801    0.1265 C   0  0  0  0  0  0  0  0  0  0  0  0
    1.4549    3.5508    1.1032 C   0  0  2  0  0  0  0  0  0  0  0  0
    1.3176    2.5723    0.6178 H   0  0  0  0  0  0  0  0  0  0  0  0
    0.4055    3.7799    2.1993 C   0  0  0  0  0  0  0  0  0  0  0  0
   -0.0674    5.2342    2.0325 C   0  0  1  0  0  0  0  0  0  0  0  0
    0.4654    6.2090    3.1117 C   0  0  2  0  0  0  0  0  0  0  0  0
   -0.0912    5.8126    4.4060 O   0  0  0  0  0  0  0  0  0  0  0  0
   -1.3889    5.8089    4.6958 C   0  0  0  0  0  0  0  0  0  0  0  0
   -1.6024    5.3215    6.1099 C   0  0  0  0  0  0  0  0  0  0  0  0
   -2.2836    6.1314    3.9544 O   0  0  0  0  0  0  0  0  0  0  0  0
    0.0898    7.6742    2.8354 C   0  0  0  0  0  0  0  0  0  0  0  0
    0.7734    8.2920    1.6086 C   0  0  0  0  0  0  0  0  0  0  0  0
    0.0090    8.1395    0.2932 C   0  0  1  0  0  0  0  0  0  0  0  0
   -0.9448    8.6922    0.4203 H   0  0  0  0  0  0  0  0  0  0  0  0
    1.9640    6.0683    3.3404 C   0  0  0  0  0  0  0  0  0  0  0  0
    2.8159    3.5699    1.5892 O   0  0  0  0  0  0  0  0  0  0  0  0
    3.2157    2.4734    2.2531 C   0  0  0  0  0  0  0  0  0  0  0  0
    4.5959    2.5440    2.7729 C   0  0  0  0  0  0  0  0  0  0  0  0
    5.3435    3.6564    2.8355 C   0  0  0  0  0  0  0  0  0  0  0  0
    6.7366    3.7215    3.3067 C   0  0  0  0  0  0  0  0  0  0  0  0
    7.4586    4.9051    3.0908 C   0  0  0  0  0  0  0  0  0  0  0  0
    8.7942    5.0085    3.4711 C   0  0  0  0  0  0  0  0  0  0  0  0
    9.4092    3.9239    4.0862 C   0  0  0  0  0  0  0  0  0  0  0  0
   11.0879    4.0429    4.5764 Cl  0  0  0  0  0  0  0  0  0  0  0  0
    8.7146    2.7387    4.3270 C   0  0  0  0  0  0  0  0  0  0  0  0
    7.3856    2.6455    3.9340 C   0  0  0  0  0  0  0  0  0  0  0  0
    2.5123    1.5006    2.3994 O   0  0  0  0  0  0  0  0  0  0  0  0
    1.8930    4.6032   -1.2269 C   0  0  0  0  0  0  0  0  0  0  0  0
    0.7397    8.5987   -0.9415 C   0  0  2  0  0  3  0  0  0  0  0  0
    1.4288    9.8016   -1.1558 C   0  0  0  0  0  0  0  0  0  0  0  0
    3.6102    9.7454   -0.7801 S   0  0  0  0  0  0  0  0  0  0  0  0
    3.7845    7.9502   -0.6978 C   0  0  0  0  0  0  0  0  0  0  0  0
    4.8184    7.3674    0.2860 C   0  0  2  0  0  0  0  0  0  0  0  0
    5.8207    7.7446    0.0241 H   0  0  0  0  0  0  0  0  0  0  0  0
    4.8858    5.9372    0.0931 N   0  0  0  0  0  0  0  0  0  0  0  0
    6.0437    5.2863   -0.1927 C   0  0  0  0  0  0  0  0  0  0  0  0
    5.9018    3.7951   -0.4258 C   0  0  0  0  0  0  0  0  0  0  0  0
    7.1193    5.8495   -0.2938 O   0  0  0  0  0  0  0  0  0  0  0  0
    4.6546    7.6611    1.7909 C   0  0  0  0  0  0  0  0  0  0  0  0
    4.1371    8.8565    2.1161 N   0  0  0  0  0  0  0  0  0  0  0  0
    3.9319    9.2732    3.4766 C   0  0  0  0  0  0  0  0  0  0  0  0
    5.0214    6.8409    2.6286 O   0  0  0  0  0  0  0  0  0  0  0  0
    0.7838    3.5404    3.2014 H   0  0  0  0  0  0  0  0  0  0  0  0
   -0.4372    3.0987    2.0147 H   0  0  0  0  0  0  0  0  0  0  0  0
   -1.1638    5.2955    2.0909 H   0  0  0  0  0  0  0  0  0  0  0  0
   -1.2632    4.2788    6.1919 H   0  0  0  0  0  0  0  0  0  0  0  0
   -2.6655    5.3899    6.3659 H   0  0  0  0  0  0  0  0  0  0  0  0
   -0.9996    5.9180    6.8086 H   0  0  0  0  0  0  0  0  0  0  0  0
    0.3713    8.2353    3.7418 H   0  0  0  0  0  0  0  0  0  0  0  0
   -1.0028    7.7583    2.7391 H   0  0  0  0  0  0  0  0  0  0  0  0
    1.7912    7.8980    1.4932 H   0  0  0  0  0  0  0  0  0  0  0  0
    0.9046    9.3718    1.7837 H   0  0  0  0  0  0  0  0  0  0  0  0
    2.2025    5.1052    3.8076 H   0  0  0  0  0  0  0  0  0  0  0  0
    2.3331    6.8652    3.9997 H   0  0  0  0  0  0  0  0  0  0  0  0
    2.5189    6.1194    2.3990 H   0  0  0  0  0  0  0  0  0  0  0  0
    4.9588    1.5738    3.1205 H   0  0  0  0  0  0  0  0  0  0  0  0
    4.9307    4.6116    2.4921 H   0  0  0  0  0  0  0  0  0  0  0  0
    6.9526    5.7532    2.6239 H   0  0  0  0  0  0  0  0  0  0  0  0
    9.3511    5.9277    3.2870 H   0  0  0  0  0  0  0  0  0  0  0  0
    9.2134    1.9018    4.8175 H   0  0  0  0  0  0  0  0  0  0  0  0
    6.8460    1.7167    4.1295 H   0  0  0  0  0  0  0  0  0  0  0  0
    1.2053    4.1515   -1.9585 H   0  0  0  0  0  0  0  0  0  0  0  0
    2.7953    3.9732   -1.1809 H   0  0  0  0  0  0  0  0  0  0  0  0
    2.1730    5.5825   -1.6320 H   0  0  0  0  0  0  0  0  0  0  0  0
    1.2243   10.6399   -0.4823 H   0  0  0  0  0  0  0  0  0  0  0  0
    1.5385   10.0908   -2.2031 H   0  0  0  0  0  0  0  0  0  0  0  0
    4.0539    7.5652   -1.6913 H   0  0  0  0  0  0  0  0  0  0  0  0
    2.7751    7.5471   -0.4712 H   0  0  0  0  0  0  0  0  0  0  0  0
    4.0477    5.3931    0.2657 H   0  0  0  0  0  0  0  0  0  0  0  0
    6.0522    3.5988   -1.4978 H   0  0  0  0  0  0  0  0  0  0  0  0
    4.9247    3.4008   -0.1183 H   0  0  0  0  0  0  0  0  0  0  0  0
    6.6963    3.2764    0.1270 H   0  0  0  0  0  0  0  0  0  0  0  0
    3.8416    9.4648    1.3348 H   0  0  0  0  0  0  0  0  0  0  0  0
    4.3664   10.2700    3.6502 H   0  0  0  0  0  0  0  0  0  0  0  0
    4.4148    8.5482    4.1441 H   0  0  0  0  0  0  0  0  0  0  0  0
    2.8570    9.3180    3.7232 H   0  0  0  0  0  0  0  0  0  0  0  0
  1  2  2  0  0  0  0
  2  3  1  0  0  0  0
  2 35  1  0  0  0  0
  3  4  1  0  0  0  0
  4  5  1  1  0  0  0
  4 19  1  0  0  0  0
  4  6  1  0  0  0  0
  6 11  1  0  0  0  0
  7  6  2  0  0  0  0
  7  8  1  0  0  0  0
  8  9  1  6  0  0  0
  8 22  1  0  0  0  0
  8 10  1  0  0  0  0
 10 49  1  0  0  0  0
 11 51  1  1  0  0  0
 11 10  1  0  0  0  0
 11 12  1  0  0  0  0
 12 21  1  0  0  0  0
 12 13  1  1  0  0  0
 13 14  1  0  0  0  0
 14 15  1  0  0  0  0
 15 52  1  0  0  0  0
 15 53  1  0  0  0  0
 15 54  1  0  0  0  0
 16 14  2  0  0  0  0
 17 12  1  0  0  0  0
 17 55  1  0  0  0  0
 18 58  1  0  0  0  0
 18 17  1  0  0  0  0
 19 20  1  1  0  0  0
 19 18  1  0  0  0  0
 21 59  1  0  0  0  0
 21 60  1  0  0  0  0
 22 23  1  0  0  0  0
 23 33  2  0  0  0  0
 23 24  1  0  0  0  0
 24 25  2  0  0  0  0
 24 62  1  0  0  0  0
 25 26  1  0  0  0  0
 26 32  1  0  0  0  0
 27 26  2  0  0  0  0
 27 28  1  0  0  0  0
 28 29  2  0  0  0  0
 29 31  1  0  0  0  0
 29 30  1  0  0  0  0
 31 66  1  0  0  0  0
 32 67  1  0  0  0  0
 32 31  2  0  0  0  0
 34 69  1  0  0  0  0
 34  7  1  0  0  0  0
 35 36  1  6  0  0  0
 35 19  1  0  0  0  0
 36 37  1  0  0  0  0
 36 71  1  0  0  0  0
 37 38  1  0  0  0  0
 38 74  1  0  0  0  0
 38 39  1  0  0  0  0
 39 40  1  6  0  0  0
 39 45  1  0  0  0  0
 41 75  1  0  0  0  0
 41 39  1  0  0  0  0
 42 41  1  0  0  0  0
 43 42  1  0  0  0  0
 43 77  1  0  0  0  0
 43 78  1  0  0  0  0
 44 42  2  0  0  0  0
 45 46  1  0  0  0  0
 45 48  2  0  0  0  0
 46 47  1  0  0  0  0
 47 80  1  0  0  0  0
 47 82  1  0  0  0  0
 47 81  1  0  0  0  0
 50 10  1  0  0  0  0
 56 17  1  0  0  0  0
 57 18  1  0  0  0  0
 61 21  1  0  0  0  0
 63 25  1  0  0  0  0
 64 27  1  0  0  0  0
 65 28  1  0  0  0  0
 68 34  1  0  0  0  0
 70 34  1  0  0  0  0
 72 36  1  0  0  0  0
 73 38  1  0  0  0  0
 76 43  1  0  0  0  0
 79 46  1  0  0  0  0
M  END
