-1 1
 OpenBabel05232413493D

 69 71  0  0  1  0  0  0  0  0999 V2000
    3.1357    1.3600    2.5472 O   0  0  0  0  0  0  0  0  0  0  0  0
    2.4753    0.3871    2.3003 C   0  0  0  0  0  0  0  0  0  0  0  0
    1.2556    0.4690    1.7448 O   0  0  0  0  0  0  0  0  0  0  0  0
    0.6918   -0.8298    1.4557 C   0  0  1  0  0  0  0  0  0  0  0  0
   -0.3361   -0.7929    1.8389 H   0  0  0  0  0  0  0  0  0  0  0  0
    0.6854   -1.0089   -0.0544 C   0  0  0  0  0  0  0  0  0  0  0  0
    1.4639   -2.0062   -0.6757 C   0  0  0  0  0  0  0  0  0  0  0  0
    2.2676   -2.9889    0.1490 C   0  0  0  0  0  0  0  0  0  0  0  0
    1.7100   -3.1660    1.5530 C   0  0  0  0  0  0  0  0  0  0  0  0
    1.5400   -1.8323    2.2571 C   0  0  1  0  0  0  0  0  0  0  0  0
    1.0613   -2.0390    3.2332 H   0  0  0  0  0  0  0  0  0  0  0  0
    1.4994   -2.0799   -2.0771 C   0  0  0  0  0  0  0  0  0  0  0  0
    2.3424   -3.1129   -2.7821 C   0  0  0  0  0  0  0  0  0  0  0  0
    0.7509   -1.1767   -2.8348 C   0  0  0  0  0  0  0  0  0  0  0  0
   -0.0306   -0.2087   -2.2093 C   0  0  0  0  0  0  0  0  0  0  0  0
   -0.7762    0.7050   -2.8945 O   0  0  0  0  0  0  0  0  0  0  0  0
   -0.7956    0.6768   -4.2851 C   0  0  0  0  0  0  0  0  0  0  0  0
   -1.6805    1.7886   -4.7920 C   0  0  0  0  0  0  0  0  0  0  0  0
   -1.9106    1.9768   -6.1596 C   0  0  0  0  0  0  0  0  0  0  0  0
   -1.0969    0.8125   -7.4283 Br  0  0  0  0  0  0  0  0  0  0  0  0
   -2.7244    3.0019   -6.6364 C   0  0  0  0  0  0  0  0  0  0  0  0
   -3.3293    3.8699   -5.7307 C   0  0  0  0  0  0  0  0  0  0  0  0
   -3.1136    3.7045   -4.3644 C   0  0  0  0  0  0  0  0  0  0  0  0
   -2.2975    2.6747   -3.9034 C   0  0  0  0  0  0  0  0  0  0  0  0
   -0.0868   -0.1107   -0.8109 C   0  0  0  0  0  0  0  0  0  0  0  0
   -0.9449    0.9716   -0.2076 C   0  0  0  0  0  0  0  0  0  0  0  0
    2.7907   -1.0529    2.5339 C   0  0  0  0  0  0  0  0  0  0  0  0
    3.9812   -1.4623    2.9694 C   0  0  0  0  0  0  0  0  0  0  0  0
    1.2261   -3.0018    5.6810 S   0  0  0  0  0  1  0  0  0  0  0  0
    1.2166   -1.1724    5.6963 C   0  0  0  0  0  0  0  0  0  0  0  0
   -0.1467   -0.5334    5.3520 C   0  0  2  0  0  0  0  0  0  0  0  0
   -0.6179   -1.1191    4.5488 H   0  0  0  0  0  0  0  0  0  0  0  0
    0.0172    0.8080    4.8417 N   0  0  0  0  0  0  0  0  0  0  0  0
   -0.7023    1.3090    3.8118 C   0  0  0  0  0  0  0  0  0  0  0  0
   -0.3911    2.7470    3.4536 C   0  0  0  0  0  0  0  0  0  0  0  0
   -1.4913    0.6406    3.1562 O   0  0  0  0  0  0  0  0  0  0  0  0
   -1.1106   -0.5217    6.5514 C   0  0  0  0  0  0  0  0  0  0  0  0
   -1.3255   -1.7458    7.0810 N   0  0  0  0  0  0  0  0  0  0  0  0
   -2.1117   -1.9417    8.2665 C   0  0  0  0  0  0  0  0  0  0  0  0
   -1.6151    0.5115    6.9674 O   0  0  0  0  0  0  0  0  0  0  0  0
    3.3162   -2.6433    0.2091 H   0  0  0  0  0  0  0  0  0  0  0  0
    2.3008   -3.9638   -0.3601 H   0  0  0  0  0  0  0  0  0  0  0  0
    2.3522   -3.8187    2.1624 H   0  0  0  0  0  0  0  0  0  0  0  0
    0.7269   -3.6630    1.5049 H   0  0  0  0  0  0  0  0  0  0  0  0
    3.3934   -3.0692   -2.4561 H   0  0  0  0  0  0  0  0  0  0  0  0
    2.3211   -2.9653   -3.8712 H   0  0  0  0  0  0  0  0  0  0  0  0
    1.9871   -4.1362   -2.5772 H   0  0  0  0  0  0  0  0  0  0  0  0
    0.7936   -1.2442   -3.9228 H   0  0  0  0  0  0  0  0  0  0  0  0
   -1.1730   -0.2947   -4.6597 H   0  0  0  0  0  0  0  0  0  0  0  0
    0.2228    0.8028   -4.7023 H   0  0  0  0  0  0  0  0  0  0  0  0
   -2.8810    3.1167   -7.7100 H   0  0  0  0  0  0  0  0  0  0  0  0
   -3.9685    4.6749   -6.0989 H   0  0  0  0  0  0  0  0  0  0  0  0
   -3.5833    4.3815   -3.6481 H   0  0  0  0  0  0  0  0  0  0  0  0
   -2.1202    2.5362   -2.8367 H   0  0  0  0  0  0  0  0  0  0  0  0
   -1.9055    1.0290   -0.7398 H   0  0  0  0  0  0  0  0  0  0  0  0
   -0.4527    1.9515   -0.3180 H   0  0  0  0  0  0  0  0  0  0  0  0
   -1.1481    0.8273    0.8606 H   0  0  0  0  0  0  0  0  0  0  0  0
    4.7652   -0.7266    3.1669 H   0  0  0  0  0  0  0  0  0  0  0  0
    4.1841   -2.5165    3.1693 H   0  0  0  0  0  0  0  0  0  0  0  0
    1.9378   -0.7908    4.9568 H   0  0  0  0  0  0  0  0  0  0  0  0
    1.5529   -0.7894    6.6771 H   0  0  0  0  0  0  0  0  0  0  0  0
    0.5210    1.4601    5.4273 H   0  0  0  0  0  0  0  0  0  0  0  0
    0.4646    2.7426    2.7613 H   0  0  0  0  0  0  0  0  0  0  0  0
   -0.1312    3.3556    4.3318 H   0  0  0  0  0  0  0  0  0  0  0  0
   -1.2597    3.1827    2.9451 H   0  0  0  0  0  0  0  0  0  0  0  0
   -0.7113   -2.5025    6.7334 H   0  0  0  0  0  0  0  0  0  0  0  0
   -2.8552   -2.7428    8.1223 H   0  0  0  0  0  0  0  0  0  0  0  0
   -2.6374   -1.0043    8.4924 H   0  0  0  0  0  0  0  0  0  0  0  0
   -1.4857   -2.2102    9.1353 H   0  0  0  0  0  0  0  0  0  0  0  0
  2 27  1  0  0  0  0
  2  1  2  0  0  0  0
  3  2  1  0  0  0  0
  4  3  1  0  0  0  0
  4  5  1  1  0  0  0
  4 10  1  0  0  0  0
  6  4  1  0  0  0  0
  7  6  1  0  0  0  0
  7  8  1  0  0  0  0
  8 41  1  0  0  0  0
  8  9  1  0  0  0  0
  9 43  1  0  0  0  0
  9 10  1  0  0  0  0
 10 27  1  0  0  0  0
 10 11  1  1  0  0  0
 12  7  2  0  0  0  0
 13 47  1  0  0  0  0
 13 45  1  0  0  0  0
 13 12  1  0  0  0  0
 14 15  2  0  0  0  0
 14 12  1  0  0  0  0
 15 25  1  0  0  0  0
 16 15  1  0  0  0  0
 17 16  1  0  0  0  0
 18 17  1  0  0  0  0
 18 24  1  0  0  0  0
 19 18  2  0  0  0  0
 20 19  1  0  0  0  0
 21 19  1  0  0  0  0
 21 22  2  0  0  0  0
 22 23  1  0  0  0  0
 23 24  2  0  0  0  0
 23 53  1  0  0  0  0
 24 54  1  0  0  0  0
 25 26  1  0  0  0  0
 25  6  2  0  0  0  0
 26 57  1  0  0  0  0
 27 28  2  0  0  0  0
 28 58  1  0  0  0  0
 28 59  1  0  0  0  0
 29 30  1  0  0  0  0
 30 61  1  0  0  0  0
 31 32  1  6  0  0  0
 31 30  1  0  0  0  0
 31 37  1  0  0  0  0
 33 31  1  0  0  0  0
 33 62  1  0  0  0  0
 34 33  1  0  0  0  0
 35 34  1  0  0  0  0
 35 64  1  0  0  0  0
 36 34  2  0  0  0  0
 37 40  2  0  0  0  0
 37 38  1  0  0  0  0
 38 39  1  0  0  0  0
 39 68  1  0  0  0  0
 39 69  1  0  0  0  0
 42  8  1  0  0  0  0
 44  9  1  0  0  0  0
 46 13  1  0  0  0  0
 48 14  1  0  0  0  0
 49 17  1  0  0  0  0
 50 17  1  0  0  0  0
 51 21  1  0  0  0  0
 52 22  1  0  0  0  0
 55 26  1  0  0  0  0
 56 26  1  0  0  0  0
 60 30  1  0  0  0  0
 63 35  1  0  0  0  0
 65 35  1  0  0  0  0
 66 38  1  0  0  0  0
 67 39  1  0  0  0  0
M  END
