-1 1
 OpenBabel05192410563D

 72 75  0  0  1  0  0  0  0  0999 V2000
    2.2597   -0.3075    2.3995 O   0  0  0  0  0  0  0  0  0  0  0  0
    1.3914   -1.0335    1.8847 C   0  0  0  0  0  0  0  0  0  0  0  0
    0.3627   -0.3748    1.1747 O   0  0  0  0  0  0  0  0  0  0  0  0
   -0.4958   -1.3473    0.5990 C   0  0  1  0  0  0  0  0  0  0  0  0
   -1.5301   -0.9860    0.7327 H   0  0  0  0  0  0  0  0  0  0  0  0
   -0.2279   -1.4451   -0.9034 C   0  0  0  0  0  0  0  0  0  0  0  0
    0.2392   -2.6245   -1.5027 C   0  0  0  0  0  0  0  0  0  0  0  0
    0.4483   -3.8675   -0.6705 C   0  0  0  0  0  0  0  0  0  0  0  0
   -0.4533   -3.8924    0.5536 C   0  0  0  0  0  0  0  0  0  0  0  0
   -0.2579   -2.6409    1.4025 C   0  0  1  0  0  0  0  0  0  0  0  0
   -0.9932   -2.6812    2.2346 H   0  0  0  0  0  0  0  0  0  0  0  0
    0.5256   -2.6496   -2.8841 C   0  0  0  0  0  0  0  0  0  0  0  0
    1.0786   -3.8876   -3.5444 C   0  0  0  0  0  0  0  0  0  0  0  0
    0.3011   -1.5089   -3.6455 C   0  0  0  0  0  0  0  0  0  0  0  0
   -0.1872   -0.3563   -3.0423 C   0  0  0  0  0  0  0  0  0  0  0  0
   -0.4868    0.7583   -3.8266 O   0  0  0  0  0  0  0  0  0  0  0  0
    0.4699    1.3908   -4.5253 C   0  0  0  0  0  0  0  0  0  0  0  0
   -0.0527    2.6010   -5.2113 C   0  0  0  0  0  0  0  0  0  0  0  0
   -1.3294    3.0032   -5.1555 C   0  0  0  0  0  0  0  0  0  0  0  0
   -1.9039    4.1884   -5.8132 C   0  0  0  0  0  0  0  0  0  0  0  0
   -3.2836    4.4102   -5.6988 C   0  0  0  0  0  0  0  0  0  0  0  0
   -3.8656    5.5159   -6.3105 C   0  0  0  0  0  0  0  0  0  0  0  0
   -5.5898    5.7687   -6.1570 Cl  0  0  0  0  0  0  0  0  0  0  0  0
   -3.1054    6.4240   -7.0406 C   0  0  0  0  0  0  0  0  0  0  0  0
   -1.7318    6.2058   -7.1512 C   0  0  0  0  0  0  0  0  0  0  0  0
   -1.1352    5.1051   -6.5481 C   0  0  0  0  0  0  0  0  0  0  0  0
    1.6161    1.0404   -4.6041 O   0  0  0  0  0  0  0  0  0  0  0  0
   -0.4534   -0.2846   -1.6781 C   0  0  0  0  0  0  0  0  0  0  0  0
   -0.9626    0.9900   -1.0575 C   0  0  0  0  0  0  0  0  0  0  0  0
    1.1349   -2.3923    1.9141 C   0  0  2  0  0  3  0  0  0  0  0  0
    1.9451   -3.3748    2.6534 C   0  0  0  0  0  0  0  0  0  0  0  0
    1.6503   -3.5455    4.5053 S   0  0  0  0  0  0  0  0  0  0  0  0
    2.6467   -2.1248    5.0771 C   0  0  0  0  0  0  0  0  0  0  0  0
    1.9745   -1.3110    6.1842 C   0  0  2  0  0  0  0  0  0  0  0  0
    2.6509   -0.4648    6.4076 H   0  0  0  0  0  0  0  0  0  0  0  0
    1.7589   -2.0670    7.3938 N   0  0  0  0  0  0  0  0  0  0  0  0
    2.7478   -2.4311    8.2379 C   0  0  0  0  0  0  0  0  0  0  0  0
    2.2930   -3.2250    9.4516 C   0  0  0  0  0  0  0  0  0  0  0  0
    3.9270   -2.1831    8.0441 O   0  0  0  0  0  0  0  0  0  0  0  0
    0.6043   -0.7238    5.7980 C   0  0  0  0  0  0  0  0  0  0  0  0
    0.5601   -0.0224    4.6578 N   0  0  0  0  0  0  0  0  0  0  0  0
   -0.6965    0.4884    4.1637 C   0  0  0  0  0  0  0  0  0  0  0  0
   -0.3652   -0.8808    6.5343 O   0  0  0  0  0  0  0  0  0  0  0  0
    1.5017   -3.8975   -0.3400 H   0  0  0  0  0  0  0  0  0  0  0  0
    0.2801   -4.7662   -1.2828 H   0  0  0  0  0  0  0  0  0  0  0  0
   -0.2435   -4.7879    1.1612 H   0  0  0  0  0  0  0  0  0  0  0  0
   -1.5090   -3.9717    0.2352 H   0  0  0  0  0  0  0  0  0  0  0  0
    1.9946   -4.2356   -3.0423 H   0  0  0  0  0  0  0  0  0  0  0  0
    1.3246   -3.6945   -4.5981 H   0  0  0  0  0  0  0  0  0  0  0  0
    0.3597   -4.7229   -3.5146 H   0  0  0  0  0  0  0  0  0  0  0  0
    0.5142   -1.5055   -4.7158 H   0  0  0  0  0  0  0  0  0  0  0  0
    0.7135    3.1365   -5.7761 H   0  0  0  0  0  0  0  0  0  0  0  0
   -2.0237    2.3953   -4.5679 H   0  0  0  0  0  0  0  0  0  0  0  0
   -3.9043    3.7156   -5.1299 H   0  0  0  0  0  0  0  0  0  0  0  0
   -3.5803    7.2858   -7.5106 H   0  0  0  0  0  0  0  0  0  0  0  0
   -1.1211    6.9118   -7.7177 H   0  0  0  0  0  0  0  0  0  0  0  0
   -0.0584    4.9599   -6.6456 H   0  0  0  0  0  0  0  0  0  0  0  0
   -1.0445    1.7941   -1.7984 H   0  0  0  0  0  0  0  0  0  0  0  0
   -0.2931    1.3009   -0.2455 H   0  0  0  0  0  0  0  0  0  0  0  0
   -1.9573    0.8366   -0.6085 H   0  0  0  0  0  0  0  0  0  0  0  0
    3.0211   -3.1644    2.5613 H   0  0  0  0  0  0  0  0  0  0  0  0
    1.7870   -4.4029    2.2889 H   0  0  0  0  0  0  0  0  0  0  0  0
    2.8379   -1.4826    4.2043 H   0  0  0  0  0  0  0  0  0  0  0  0
    3.6112   -2.4803    5.4651 H   0  0  0  0  0  0  0  0  0  0  0  0
    0.7757   -2.1459    7.6442 H   0  0  0  0  0  0  0  0  0  0  0  0
    2.5014   -4.2897    9.2679 H   0  0  0  0  0  0  0  0  0  0  0  0
    1.2216   -3.1119    9.6682 H   0  0  0  0  0  0  0  0  0  0  0  0
    2.8853   -2.9115   10.3211 H   0  0  0  0  0  0  0  0  0  0  0  0
    1.3453   -0.0333    3.9896 H   0  0  0  0  0  0  0  0  0  0  0  0
   -1.4904   -0.2653    4.2813 H   0  0  0  0  0  0  0  0  0  0  0  0
   -0.5755    0.7210    3.0985 H   0  0  0  0  0  0  0  0  0  0  0  0
   -1.0127    1.3935    4.7099 H   0  0  0  0  0  0  0  0  0  0  0  0
  2 30  1  0  0  0  0
  2  1  2  0  0  0  0
  3  2  1  0  0  0  0
  4  5  1  1  0  0  0
  4  3  1  0  0  0  0
  4 10  1  0  0  0  0
  6  4  1  0  0  0  0
  7  6  1  0  0  0  0
  7  8  1  0  0  0  0
  8 44  1  0  0  0  0
  8  9  1  0  0  0  0
  9 46  1  0  0  0  0
  9 10  1  0  0  0  0
 10 30  1  0  0  0  0
 10 11  1  1  0  0  0
 12  7  2  0  0  0  0
 13 50  1  0  0  0  0
 13 48  1  0  0  0  0
 13 12  1  0  0  0  0
 14 15  2  0  0  0  0
 14 12  1  0  0  0  0
 15 28  1  0  0  0  0
 16 15  1  0  0  0  0
 17 16  1  0  0  0  0
 18 19  2  0  0  0  0
 18 17  1  0  0  0  0
 19 53  1  0  0  0  0
 20 21  1  0  0  0  0
 20 19  1  0  0  0  0
 21 54  1  0  0  0  0
 22 23  1  0  0  0  0
 22 21  2  0  0  0  0
 24 22  1  0  0  0  0
 25 24  2  0  0  0  0
 25 26  1  0  0  0  0
 26 20  2  0  0  0  0
 27 17  2  0  0  0  0
 28 29  1  0  0  0  0
 28  6  2  0  0  0  0
 29 60  1  0  0  0  0
 29 59  1  0  0  0  0
 30 31  1  1  0  0  0
 31 32  1  0  0  0  0
 32 33  1  0  0  0  0
 33 64  1  0  0  0  0
 33 34  1  0  0  0  0
 34 35  1  1  0  0  0
 34 36  1  0  0  0  0
 36 65  1  0  0  0  0
 36 37  1  0  0  0  0
 37 38  1  0  0  0  0
 38 67  1  0  0  0  0
 38 68  1  0  0  0  0
 39 37  2  0  0  0  0
 40 34  1  0  0  0  0
 40 43  2  0  0  0  0
 41 40  1  0  0  0  0
 42 70  1  0  0  0  0
 42 41  1  0  0  0  0
 42 72  1  0  0  0  0
 45  8  1  0  0  0  0
 47  9  1  0  0  0  0
 49 13  1  0  0  0  0
 51 14  1  0  0  0  0
 52 18  1  0  0  0  0
 55 24  1  0  0  0  0
 56 25  1  0  0  0  0
 57 26  1  0  0  0  0
 58 29  1  0  0  0  0
 61 31  1  0  0  0  0
 62 31  1  0  0  0  0
 63 33  1  0  0  0  0
 66 38  1  0  0  0  0
 69 41  1  0  0  0  0
 71 42  1  0  0  0  0
M  END
