74
-1 1
O         2.085035   -0.375678    3.000905
C         1.379969   -0.943211    2.147357
O         0.908315   -0.141872    1.088215
C         0.275239   -0.975688    0.130908
H        -0.576441   -0.408485   -0.279731
C         1.312890   -1.289902   -0.980916
C         1.537131   -0.082592   -1.928070
H         2.406053   -0.328527   -2.562887
C         0.353366    0.084832   -2.882008
H        -0.541197    0.409302   -2.326704
C         0.032602   -1.179816   -3.666454
C        -0.162400   -2.367599   -2.728176
C         1.031367   -2.593745   -1.779362
C         0.734765   -3.743132   -0.797870
C        -0.426352   -3.462792    0.140682
C        -0.211689   -2.187460    0.949345
H        -1.195375   -1.919207    1.394117
C         2.272879   -3.010567   -2.584864
O         0.695373    1.140011   -3.802816
C        -0.278632    1.846520   -4.361694
C         0.253052    2.923363   -5.260091
C        -0.667473    3.743372   -5.919115
C        -0.221527    4.758260   -6.760983
C         1.147054    4.957703   -6.947377
C         2.068010    4.141271   -6.290538
C         1.624178    3.124812   -5.447531
O        -1.456501    1.658709   -4.178785
C         1.865628    1.228670   -1.213276
C         0.857772   -2.221291    2.010848
C         1.027183   -3.283546    3.012493
S        -0.303484   -3.417111    4.334092
C        -0.237882   -1.717250    4.970133
C        -1.207194   -0.723460    4.313860
H        -1.653348   -1.176299    3.411608
N        -0.489388    0.487043    3.909536
C        -0.931365    1.312184    2.929663
C         0.066749    2.355116    2.480956
O        -2.072762    1.275511    2.470923
C        -2.381588   -0.399054    5.275872
N        -3.370858    0.321412    4.699598
C        -4.517740    0.780275    5.432926
O        -2.413608   -0.782851    6.434436
H         2.256856   -1.453806   -0.436237
H         0.858519   -1.366520   -4.372306
H        -0.874316   -1.011576   -4.266666
H        -0.349356   -3.282998   -3.315516
H        -1.073863   -2.192959   -2.134885
H         1.640738   -3.914083   -0.191738
H         0.552659   -4.667882   -1.374066
H        -0.561976   -4.307351    0.836158
H        -1.371160   -3.395872   -0.425255
H         2.576177   -2.275920   -3.343680
H         2.084582   -3.963624   -3.106219
H         3.129978   -3.161536   -1.910086
H        -1.731660    3.566147   -5.752452
H        -0.943221    5.398372   -7.273361
H         1.497892    5.755069   -7.607019
H         3.139262    4.298622   -6.434265
H         2.332730    2.480089   -4.926363
H         2.675633    1.082365   -0.486539
H         1.004166    1.607796   -0.646010
H         2.167985    1.994625   -1.942986
H         1.973002   -3.145412    3.556672
H         1.030601   -4.300153    2.582053
H         0.798891   -1.376249    4.843659
H        -0.465712   -1.767371    6.042476
H         0.532836    0.396445    3.941499
H        -0.171191    2.640716    1.449682
H         1.094212    1.971280    2.532851
H        -0.034949    3.242832    3.125785
H        -3.187226    0.662919    3.749126
H        -4.525122    1.879079    5.537276
H        -4.486232    0.333932    6.435401
H        -5.455920    0.478279    4.938849
