-1 1
 OpenBabel05232414493D

 74 76  0  0  1  0  0  0  0  0999 V2000
   -0.8889    5.3659   -3.8902 O   0  0  0  0  0  0  0  0  0  0  0  0
   -1.7448    4.9734   -4.6600 C   0  0  0  0  0  0  0  0  0  0  0  0
   -2.1165    5.7894   -5.7181 O   0  0  0  0  0  0  0  0  0  0  0  0
   -2.9473    5.0717   -6.6298 C   0  0  1  0  0  0  0  0  0  0  0  0
   -3.7164    5.7792   -6.9761 H   0  0  0  0  0  0  0  0  0  0  0  0
   -2.0484    4.5915   -7.7982 C   0  0  2  0  0  0  0  0  0  0  0  0
   -1.6976    5.7431   -8.7757 C   0  0  1  0  0  0  0  0  0  0  0  0
   -0.9223    5.3588   -9.4607 H   0  0  0  0  0  0  0  0  0  0  0  0
   -2.9005    6.0943   -9.6533 C   0  0  2  0  0  0  0  0  0  0  0  0
   -3.6914    6.5636   -9.0462 H   0  0  0  0  0  0  0  0  0  0  0  0
   -3.4747    4.8942  -10.3932 C   0  0  0  0  0  0  0  0  0  0  0  0
   -3.7951    3.7601   -9.4239 C   0  0  0  0  0  0  0  0  0  0  0  0
   -2.5899    3.3467   -8.5563 C   0  0  2  0  0  0  0  0  0  0  0  0
   -2.9966    2.2633   -7.5399 C   0  0  0  0  0  0  0  0  0  0  0  0
   -4.0396    2.7265   -6.5373 C   0  0  0  0  0  0  0  0  0  0  0  0
   -3.5904    3.9639   -5.7697 C   0  0  1  0  0  0  0  0  0  0  0  0
   -4.4909    4.4102   -5.3094 H   0  0  0  0  0  0  0  0  0  0  0  0
   -1.4896    2.7342   -9.4383 C   0  0  0  0  0  0  0  0  0  0  0  0
   -2.4503    7.0729  -10.6105 O   0  0  0  0  0  0  0  0  0  0  0  0
   -3.3318    7.9220  -11.1250 C   0  0  0  0  0  0  0  0  0  0  0  0
   -2.6901    8.8939  -12.0697 C   0  0  0  0  0  0  0  0  0  0  0  0
   -3.5064    9.8470  -12.6858 C   0  0  0  0  0  0  0  0  0  0  0  0
   -2.9562   10.7725  -13.5680 C   0  0  0  0  0  0  0  0  0  0  0  0
   -1.5872   10.7490  -13.8380 C   0  0  0  0  0  0  0  0  0  0  0  0
   -0.7701    9.7993  -13.2244 C   0  0  0  0  0  0  0  0  0  0  0  0
   -1.3183    8.8720  -12.3410 C   0  0  0  0  0  0  0  0  0  0  0  0
   -4.5111    7.9247  -10.8717 O   0  0  0  0  0  0  0  0  0  0  0  0
   -1.1214    6.9904   -8.1046 C   0  0  0  0  0  0  0  0  0  0  0  0
   -2.5216    3.7697   -4.7244 C   0  0  2  0  0  3  0  0  0  0  0  0
   -2.4177    2.7335   -3.8007 C   0  0  0  0  0  3  0  0  0  0  0  0
   -3.7880    2.9148   -1.9552 S   0  0  0  0  0  1  0  0  0  0  0  0
   -3.5636    4.7153   -1.8407 C   0  0  0  0  0  0  0  0  0  0  0  0
   -4.6104    5.5437   -2.6160 C   0  0  2  0  0  0  0  0  0  0  0  0
   -4.9176    4.9746   -3.5036 H   0  0  0  0  0  0  0  0  0  0  0  0
   -4.0437    6.7801   -3.0885 N   0  0  0  0  0  0  0  0  0  0  0  0
   -4.3481    7.3163   -4.2962 C   0  0  0  0  0  0  0  0  0  0  0  0
   -3.5107    8.5171   -4.6839 C   0  0  0  0  0  0  0  0  0  0  0  0
   -5.1896    6.8418   -5.0424 O   0  0  0  0  0  0  0  0  0  0  0  0
   -5.8718    5.7862   -1.7746 C   0  0  0  0  0  0  0  0  0  0  0  0
   -6.5358    4.6376   -1.4759 N   0  0  0  0  0  0  0  0  0  0  0  0
   -7.6819    4.6134   -0.6098 C   0  0  0  0  0  0  0  0  0  0  0  0
   -6.2272    6.8914   -1.4070 O   0  0  0  0  0  0  0  0  0  0  0  0
   -1.1057    4.2786   -7.3183 H   0  0  0  0  0  0  0  0  0  0  0  0
   -2.7409    4.5713  -11.1499 H   0  0  0  0  0  0  0  0  0  0  0  0
   -4.3816    5.2047  -10.9332 H   0  0  0  0  0  0  0  0  0  0  0  0
   -4.1694    2.8842   -9.9810 H   0  0  0  0  0  0  0  0  0  0  0  0
   -4.6217    4.0859   -8.7731 H   0  0  0  0  0  0  0  0  0  0  0  0
   -2.0913    1.9533   -6.9902 H   0  0  0  0  0  0  0  0  0  0  0  0
   -3.3568    1.3753   -8.0890 H   0  0  0  0  0  0  0  0  0  0  0  0
   -4.2601    1.9210   -5.8185 H   0  0  0  0  0  0  0  0  0  0  0  0
   -4.9953    2.9324   -7.0468 H   0  0  0  0  0  0  0  0  0  0  0  0
   -1.1248    3.4098  -10.2242 H   0  0  0  0  0  0  0  0  0  0  0  0
   -1.8650    1.8244   -9.9347 H   0  0  0  0  0  0  0  0  0  0  0  0
   -0.6237    2.4461   -8.8217 H   0  0  0  0  0  0  0  0  0  0  0  0
   -4.5731    9.8435  -12.4539 H   0  0  0  0  0  0  0  0  0  0  0  0
   -3.5963   11.5170  -14.0465 H   0  0  0  0  0  0  0  0  0  0  0  0
   -1.1544   11.4761  -14.5294 H   0  0  0  0  0  0  0  0  0  0  0  0
    0.3018    9.7821  -13.4337 H   0  0  0  0  0  0  0  0  0  0  0  0
   -0.6912    8.1250  -11.8532 H   0  0  0  0  0  0  0  0  0  0  0  0
   -0.3052    6.7252   -7.4196 H   0  0  0  0  0  0  0  0  0  0  0  0
   -1.8802    7.5135   -7.5056 H   0  0  0  0  0  0  0  0  0  0  0  0
   -0.7412    7.6887   -8.8648 H   0  0  0  0  0  0  0  0  0  0  0  0
   -1.5063    2.7099   -3.1992 H   0  0  0  0  0  0  0  0  0  0  0  0
   -2.8160    1.7493   -4.0608 H   0  0  0  0  0  0  0  0  0  0  0  0
   -2.5736    4.9521   -2.2540 H   0  0  0  0  0  0  0  0  0  0  0  0
   -3.5584    5.0131   -0.7792 H   0  0  0  0  0  0  0  0  0  0  0  0
   -3.3238    7.2167   -2.5305 H   0  0  0  0  0  0  0  0  0  0  0  0
   -4.0355    9.0802   -5.4648 H   0  0  0  0  0  0  0  0  0  0  0  0
   -2.5607    8.1332   -5.0862 H   0  0  0  0  0  0  0  0  0  0  0  0
   -3.2969    9.1749   -3.8286 H   0  0  0  0  0  0  0  0  0  0  0  0
   -6.0700    3.7621   -1.7249 H   0  0  0  0  0  0  0  0  0  0  0  0
   -8.5257    4.0785   -1.0756 H   0  0  0  0  0  0  0  0  0  0  0  0
   -7.9825    5.6524   -0.4205 H   0  0  0  0  0  0  0  0  0  0  0  0
   -7.4593    4.1306    0.3574 H   0  0  0  0  0  0  0  0  0  0  0  0
  2  1  2  0  0  0  0
  3  2  1  0  0  0  0
  4  5  1  6  0  0  0
  4 16  1  0  0  0  0
  4  3  1  0  0  0  0
  6 43  1  1  0  0  0
  6  4  1  0  0  0  0
  7  8  1  6  0  0  0
  7 28  1  0  0  0  0
  7  6  1  0  0  0  0
  9 10  1  1  0  0  0
  9  7  1  0  0  0  0
 11  9  1  0  0  0  0
 11 12  1  0  0  0  0
 12 47  1  0  0  0  0
 12 13  1  0  0  0  0
 13 18  1  6  0  0  0
 13  6  1  0  0  0  0
 13 14  1  0  0  0  0
 14 48  1  0  0  0  0
 14 15  1  0  0  0  0
 15 50  1  0  0  0  0
 15 16  1  0  0  0  0
 16 17  1  1  0  0  0
 16 29  1  0  0  0  0
 18 54  1  0  0  0  0
 19  9  1  0  0  0  0
 20 27  2  0  0  0  0
 20 19  1  0  0  0  0
 21 20  1  0  0  0  0
 22 55  1  0  0  0  0
 22 21  2  0  0  0  0
 23 22  1  0  0  0  0
 24 23  2  0  0  0  0
 24 25  1  0  0  0  0
 25 26  2  0  0  0  0
 26 21  1  0  0  0  0
 26 59  1  0  0  0  0
 28 61  1  0  0  0  0
 28 60  1  0  0  0  0
 29  2  1  0  0  0  0
 29 30  1  1  0  0  0
 30 63  1  0  0  0  0
 31 32  1  0  0  0  0
 32 66  1  0  0  0  0
 33 34  1  6  0  0  0
 33 32  1  0  0  0  0
 33 39  1  0  0  0  0
 35 33  1  0  0  0  0
 35 67  1  0  0  0  0
 36 35  1  0  0  0  0
 37 36  1  0  0  0  0
 37 70  1  0  0  0  0
 38 36  2  0  0  0  0
 39 40  1  0  0  0  0
 39 42  2  0  0  0  0
 40 41  1  0  0  0  0
 41 73  1  0  0  0  0
 41 74  1  0  0  0  0
 44 11  1  0  0  0  0
 45 11  1  0  0  0  0
 46 12  1  0  0  0  0
 49 14  1  0  0  0  0
 51 15  1  0  0  0  0
 52 18  1  0  0  0  0
 53 18  1  0  0  0  0
 56 23  1  0  0  0  0
 57 24  1  0  0  0  0
 58 25  1  0  0  0  0
 62 28  1  0  0  0  0
 64 30  1  0  0  0  0
 65 32  1  0  0  0  0
 68 37  1  0  0  0  0
 69 37  1  0  0  0  0
 71 40  1  0  0  0  0
 72 41  1  0  0  0  0
M  END
