74
-1 1
O        -0.888939    5.365943   -3.890164
C        -1.744770    4.973361   -4.659962
O        -2.116535    5.789448   -5.718106
C        -2.947296    5.071733   -6.629843
H        -3.716353    5.779181   -6.976108
C        -2.048360    4.591463   -7.798238
C        -1.697612    5.743072   -8.775719
H        -0.922253    5.358838   -9.460676
C        -2.900508    6.094346   -9.653329
H        -3.691371    6.563627   -9.046225
C        -3.474661    4.894223  -10.393233
C        -3.795138    3.760108   -9.423887
C        -2.589942    3.346697   -8.556293
C        -2.996617    2.263257   -7.539895
C        -4.039624    2.726460   -6.537324
C        -3.590384    3.963945   -5.769652
H        -4.490903    4.410164   -5.309435
C        -1.489598    2.734229   -9.438267
O        -2.450305    7.072945  -10.610517
C        -3.331759    7.922018  -11.124969
C        -2.690055    8.893921  -12.069700
C        -3.506365    9.846967  -12.685763
C        -2.956157   10.772451  -13.567972
C        -1.587190   10.749005  -13.837980
C        -0.770060    9.799309  -13.224361
C        -1.318329    8.871999  -12.341010
O        -4.511055    7.924656  -10.871657
C        -1.121365    6.990443   -8.104645
C        -2.521565    3.769726   -4.724412
C        -2.417722    2.733478   -3.800747
S        -3.787995    2.914782   -1.955198
C        -3.563591    4.715332   -1.840675
C        -4.610384    5.543728   -2.615958
H        -4.917572    4.974628   -3.503591
N        -4.043735    6.780086   -3.088481
C        -4.348073    7.316295   -4.296163
C        -3.510711    8.517121   -4.683856
O        -5.189595    6.841756   -5.042373
C        -5.871788    5.786237   -1.774643
N        -6.535753    4.637650   -1.475935
C        -7.681851    4.613427   -0.609829
O        -6.227159    6.891412   -1.406956
H        -1.105657    4.278567   -7.318289
H        -2.740883    4.571283  -11.149888
H        -4.381610    5.204682  -10.933249
H        -4.169443    2.884241   -9.980966
H        -4.621745    4.085947   -8.773061
H        -2.091303    1.953309   -6.990190
H        -3.356847    1.375322   -8.089015
H        -4.260063    1.921023   -5.818470
H        -4.995337    2.932436   -7.046839
H        -1.124773    3.409814  -10.224178
H        -1.864974    1.824360   -9.934670
H        -0.623732    2.446061   -8.821732
H        -4.573102    9.843464  -12.453908
H        -3.596276   11.516969  -14.046522
H        -1.154449   11.476083  -14.529406
H         0.301791    9.782105  -13.433744
H        -0.691190    8.125010  -11.853160
H        -0.305166    6.725191   -7.419644
H        -1.880203    7.513508   -7.505559
H        -0.741170    7.688725   -8.864817
H        -1.506329    2.709876   -3.199178
H        -2.816015    1.749308   -4.060839
H        -2.573624    4.952101   -2.253951
H        -3.558393    5.013079   -0.779239
H        -3.323769    7.216744   -2.530452
H        -4.035491    9.080229   -5.464849
H        -2.560694    8.133228   -5.086173
H        -3.296866    9.174909   -3.828619
H        -6.070045    3.762122   -1.724929
H        -8.525742    4.078481   -1.075646
H        -7.982513    5.652365   -0.420491
H        -7.459345    4.130628    0.357408
