69
-1 1
C        10.054136    4.829593   -6.028228
O        11.332491    4.360167   -6.325867
C        12.341455    5.311829   -6.202011
C        13.703786    4.668327   -6.364769
O        14.121794    3.946868   -5.231766
C        13.918332    2.612387   -5.127597
C        13.067765    1.869362   -5.915388
C        14.685084    1.970191   -4.104884
O        15.550964    2.694484   -3.345350
C        14.956231    3.498996   -2.353493
C        14.568152    0.615283   -3.910933
C        13.705227   -0.163990   -4.716836
C        12.945900    0.469938   -5.725945
N        12.072957   -0.222543   -6.515914
C        11.985809   -1.505235   -6.278630
N        12.637824   -2.224184   -5.347406
C        13.481550   -1.582834   -4.558247
N        14.120082   -2.244697   -3.567653
C        14.024796   -3.568946   -3.147974
C        13.373722   -4.602113   -3.716242
C        13.427846   -5.993867   -3.162929
O        12.935889   -6.903016   -3.841492
C        14.083352   -6.158809   -1.896719
C        14.616464   -5.049790   -1.188778
S        13.201482   -4.059691    0.146165
C        11.688400   -4.795199   -0.486167
C        10.575582   -3.804434   -0.886698
H         9.881581   -4.326935   -1.566185
N        11.094692   -2.663240   -1.577525
C        10.260681   -1.813090   -2.226801
C        10.883841   -0.522021   -2.714349
O         9.081766   -2.066527   -2.409947
C         9.766250   -3.369000    0.348375
N         8.850825   -4.295779    0.755210
C         8.028624   -4.118270    1.921722
O         9.953094   -2.320896    0.931060
C        14.863655   -3.785823   -1.928246
O        15.682455   -2.940999   -1.597690
S        14.083346   -7.746976   -1.118352
C        15.060161   -8.721751   -2.298792
H         9.354508    3.992264   -6.146976
H         9.746984    5.649623   -6.707641
H         9.985848    5.201765   -4.987636
H        12.301121    5.809960   -5.211657
H        12.233430    6.105833   -6.972333
H        14.446933    5.469660   -6.497090
H        13.720903    4.036243   -7.268504
H        12.426718    2.331547   -6.663231
H        15.771343    3.987905   -1.803847
H        14.365765    2.888247   -1.647775
H        14.304974    4.271826   -2.793717
H        15.177316    0.180119   -3.115881
H        11.292783   -2.079307   -6.905829
H        14.795417   -1.746287   -2.991149
H        12.799741   -4.468469   -4.630531
H        15.371615   -5.253743   -0.426206
H        11.283501   -5.508629    0.246372
H        11.989063   -5.394812   -1.366882
H        12.033064   -2.380473   -1.306796
H        10.332795    0.314099   -2.261542
H        10.759137   -0.451146   -3.804192
H        11.948595   -0.428592   -2.464319
H         8.715270   -5.115060    0.179389
H         8.321186   -3.167283    2.385137
H         8.177257   -4.929698    2.652974
H         6.957609   -4.067703    1.664325
H        15.064202   -9.763071   -1.944765
H        16.093394   -8.349824   -2.354589
H        14.580669   -8.665512   -3.284915
