71
-1 1
O         5.170655   -0.778303    1.525636
C         3.991211   -0.659894    1.345935
O         3.442930    0.491381    0.885508
C         2.059525    0.300600    0.537671
H         1.545760    1.234709    0.805273
C         1.955687    0.029636   -0.980611
C         2.187451    1.307751   -1.826217
H         2.226923    0.985070   -2.879534
C         0.985642    2.248405   -1.713003
H         0.930134    2.676531   -0.699453
C        -0.339272    1.581840   -2.056774
C        -0.539759    0.297745   -1.255193
C         0.636043   -0.690246   -1.388437
C         0.414884   -1.922309   -0.492939
C         0.373521   -1.622327    0.994859
C         1.606612   -0.858317    1.446326
H         1.411201   -0.422840    2.441912
C         0.734597   -1.208363   -2.832332
O         1.216103    3.338692   -2.625810
C         0.731428    4.537281   -2.323077
C         1.075738    5.533602   -3.360122
S         0.545153    7.164122   -3.166880
C         1.284417    7.625272   -4.643842
C         1.912972    6.573128   -5.261063
C         1.792226    5.366995   -4.520395
O         0.093413    4.800537   -1.332245
C         3.497917    2.039844   -1.535802
C         2.887908   -1.640210    1.557073
C         3.084469   -2.940707    1.778202
S         0.035098   -5.271283    2.023098
C        -1.583075   -4.516260    1.622002
C        -2.374224   -3.910459    2.808023
H        -2.520706   -4.714274    3.548978
N        -3.661031   -3.397318    2.389697
C        -4.751395   -4.157542    2.156620
C        -6.004862   -3.379066    1.778477
O        -4.764851   -5.375022    2.219996
C        -1.663598   -2.730949    3.489513
N        -0.499081   -3.048446    4.079147
C         0.383084   -2.049536    4.621107
O        -2.148328   -1.599138    3.472954
H         2.780096   -0.667412   -1.213577
H        -0.346769    1.372803   -3.138642
H        -1.158940    2.289433   -1.860044
H        -1.472251   -0.198171   -1.570462
H        -0.684504    0.559783   -0.194803
H         1.222283   -2.648398   -0.686950
H        -0.518748   -2.425260   -0.792547
H         0.323289   -2.574243    1.546236
H        -0.533361   -1.061825    1.269374
H         0.845188   -0.416306   -3.585787
H        -0.172683   -1.778899   -3.085191
H         1.592999   -1.890142   -2.936249
H         1.220326    8.656682   -4.987191
H         2.442640    6.659713   -6.209823
H         2.209542    4.404546   -4.814344
H         4.348884    1.345087   -1.562579
H         3.497193    2.504476   -0.539797
H         3.663816    2.828602   -2.283688
H         4.109965   -3.317805    1.832200
H         2.246968   -3.646461    1.889319
H        -2.246010   -5.282198    1.194498
H        -1.479290   -3.722357    0.861146
H        -3.724243   -2.384295    2.450651
H        -5.887346   -2.288456    1.846293
H        -6.826921   -3.700329    2.433243
H        -6.282831   -3.646191    0.748424
H        -0.095737   -3.950183    3.748099
H         1.377820   -2.121458    4.151541
H         0.512750   -2.167465    5.710128
H        -0.039276   -1.053359    4.428907
