-1 1
 OpenBabel05232413493D

 77 79  0  0  1  0  0  0  0  0999 V2000
    6.4017   -1.9792    0.3088 O   0  0  0  0  0  0  0  0  0  0  0  0
    5.2001   -2.0130    0.2891 C   0  0  0  0  0  0  0  0  0  0  0  0
    4.4577   -1.1746   -0.4499 O   0  0  0  0  0  0  0  0  0  0  0  0
    3.0399   -1.3158   -0.1695 C   0  0  1  0  0  0  0  0  0  0  0  0
    2.7699   -0.5115    0.5300 H   0  0  0  0  0  0  0  0  0  0  0  0
    2.2756   -1.0901   -1.4690 C   0  0  2  0  0  0  0  0  0  0  0  0
    0.8370   -0.5880   -1.1972 C   0  0  1  0  0  0  0  0  0  0  0  0
    0.9620    0.3489   -0.6309 H   0  0  0  0  0  0  0  0  0  0  0  0
    0.2428   -0.2143   -2.5591 C   0  0  1  0  0  0  0  0  0  0  0  0
    0.2086   -1.3741   -3.5656 C   0  0  0  0  0  0  0  0  0  0  0  0
    1.0436   -2.5853   -3.1415 C   0  0  0  0  0  0  0  0  0  0  0  0
    2.4134   -2.2546   -2.5141 C   0  0  2  0  0  0  0  0  0  0  0  0
    2.9600   -3.5452   -1.8583 C   0  0  0  0  0  0  0  0  0  0  0  0
    2.4117   -3.7765   -0.4549 C   0  0  0  0  0  0  0  0  0  0  0  0
    2.8836   -2.6848    0.5195 C   0  0  1  0  0  0  0  0  0  0  0  0
    2.1773   -2.6417    1.3692 H   0  0  0  0  0  0  0  0  0  0  0  0
    3.3852   -1.8160   -3.6181 C   0  0  0  0  0  0  0  0  0  0  0  0
   -1.1079    0.2521   -2.3929 O   0  0  0  0  0  0  0  0  0  0  0  0
   -1.3099    1.5198   -2.0489 C   0  0  0  0  0  0  0  0  0  0  0  0
   -2.7263    1.7572   -1.6192 C   0  0  0  0  0  0  0  0  0  0  0  0
   -3.0752    3.0446   -1.2057 C   0  0  0  0  0  0  0  0  0  0  0  0
   -4.3630    3.2966   -0.7450 C   0  0  0  0  0  0  0  0  0  0  0  0
   -4.7741    4.6869   -0.3349 C   0  0  0  0  0  0  0  0  0  0  0  0
   -3.7282    5.4822   -0.1120 F   0  0  0  0  0  0  0  0  0  0  0  0
   -5.5189    5.2729   -1.2871 F   0  0  0  0  0  0  0  0  0  0  0  0
   -5.5192    4.6746    0.7765 F   0  0  0  0  0  0  0  0  0  0  0  0
   -5.3050    2.2654   -0.6890 C   0  0  0  0  0  0  0  0  0  0  0  0
   -4.9556    0.9845   -1.1039 C   0  0  0  0  0  0  0  0  0  0  0  0
   -3.6681    0.7273   -1.5697 C   0  0  0  0  0  0  0  0  0  0  0  0
   -0.4682    2.3817   -2.0630 O   0  0  0  0  0  0  0  0  0  0  0  0
   -0.0980   -1.4527   -0.3496 C   0  0  0  0  0  0  0  0  0  0  0  0
    4.2750   -2.9279    1.0231 C   0  0  0  0  0  0  0  0  0  0  0  0
    4.6891   -3.7723    1.9681 C   0  0  0  0  0  0  0  0  0  0  0  0
    0.5121   -3.4463    3.1226 S   0  0  0  0  0  1  0  0  0  0  0  0
    0.3821   -2.1782    4.4283 C   0  0  0  0  0  0  0  0  0  0  0  0
    0.2455   -0.7501    3.8755 C   0  0  2  0  0  0  0  0  0  0  0  0
    0.1105   -0.0295    4.7015 H   0  0  0  0  0  0  0  0  0  0  0  0
   -0.9244   -0.6638    3.0505 N   0  0  0  0  0  0  0  0  0  0  0  0
   -1.6888    0.4474    2.9636 C   0  0  0  0  0  0  0  0  0  0  0  0
   -2.7718    0.4027    1.9005 C   0  0  0  0  0  0  0  0  0  0  0  0
   -1.5399    1.4298    3.6714 O   0  0  0  0  0  0  0  0  0  0  0  0
    1.4778   -0.2481    3.0962 C   0  0  0  0  0  0  0  0  0  0  0  0
    2.6696   -0.4713    3.7105 N   0  0  0  0  0  0  0  0  0  0  0  0
    3.9300   -0.0225    3.1773 C   0  0  0  0  0  0  0  0  0  0  0  0
    1.3820    0.3764    2.0525 O   0  0  0  0  0  0  0  0  0  0  0  0
    2.7771   -0.2143   -1.9137 H   0  0  0  0  0  0  0  0  0  0  0  0
    0.8302    0.6230   -2.9632 H   0  0  0  0  0  0  0  0  0  0  0  0
    0.5400   -1.0066   -4.5495 H   0  0  0  0  0  0  0  0  0  0  0  0
   -0.8384   -1.6861   -3.6932 H   0  0  0  0  0  0  0  0  0  0  0  0
    1.2066   -3.2368   -4.0163 H   0  0  0  0  0  0  0  0  0  0  0  0
    0.4655   -3.1875   -2.4273 H   0  0  0  0  0  0  0  0  0  0  0  0
    4.0611   -3.4994   -1.8149 H   0  0  0  0  0  0  0  0  0  0  0  0
    2.7214   -4.4000   -2.5140 H   0  0  0  0  0  0  0  0  0  0  0  0
    2.7240   -4.7577   -0.0678 H   0  0  0  0  0  0  0  0  0  0  0  0
    1.3116   -3.7920   -0.4677 H   0  0  0  0  0  0  0  0  0  0  0  0
    2.9947   -0.9518   -4.1805 H   0  0  0  0  0  0  0  0  0  0  0  0
    3.5620   -2.6354   -4.3346 H   0  0  0  0  0  0  0  0  0  0  0  0
    4.3513   -1.5232   -3.1803 H   0  0  0  0  0  0  0  0  0  0  0  0
   -2.3172    3.8285   -1.2360 H   0  0  0  0  0  0  0  0  0  0  0  0
   -6.3087    2.4664   -0.3094 H   0  0  0  0  0  0  0  0  0  0  0  0
   -5.6873    0.1764   -1.0497 H   0  0  0  0  0  0  0  0  0  0  0  0
   -3.3746   -0.2769   -1.8765 H   0  0  0  0  0  0  0  0  0  0  0  0
   -0.9923   -0.8682   -0.0917 H   0  0  0  0  0  0  0  0  0  0  0  0
    0.3676   -1.7448    0.6011 H   0  0  0  0  0  0  0  0  0  0  0  0
   -0.4410   -2.3663   -0.8543 H   0  0  0  0  0  0  0  0  0  0  0  0
    5.7522   -3.8262    2.2190 H   0  0  0  0  0  0  0  0  0  0  0  0
    3.9745   -4.3977    2.5104 H   0  0  0  0  0  0  0  0  0  0  0  0
    1.2407   -2.2244    5.1226 H   0  0  0  0  0  0  0  0  0  0  0  0
   -0.5056   -2.3583    5.0568 H   0  0  0  0  0  0  0  0  0  0  0  0
   -1.0524   -1.4655    2.4355 H   0  0  0  0  0  0  0  0  0  0  0  0
   -2.4602    1.0528    1.0697 H   0  0  0  0  0  0  0  0  0  0  0  0
   -3.6992    0.8202    2.3150 H   0  0  0  0  0  0  0  0  0  0  0  0
   -2.9593   -0.6067    1.5076 H   0  0  0  0  0  0  0  0  0  0  0  0
    2.6791   -1.1508    4.4583 H   0  0  0  0  0  0  0  0  0  0  0  0
    4.5219   -0.8519    2.7595 H   0  0  0  0  0  0  0  0  0  0  0  0
    4.5300    0.4753    3.9557 H   0  0  0  0  0  0  0  0  0  0  0  0
    3.7261    0.7013    2.3782 H   0  0  0  0  0  0  0  0  0  0  0  0
  2  1  2  0  0  0  0
  2 32  1  0  0  0  0
  3  4  1  0  0  0  0
  3  2  1  0  0  0  0
  4 15  1  0  0  0  0
  4  5  1  1  0  0  0
  6 46  1  6  0  0  0
  6  7  1  0  0  0  0
  6  4  1  0  0  0  0
  7  8  1  1  0  0  0
  7 31  1  0  0  0  0
  9 47  1  6  0  0  0
  9 18  1  0  0  0  0
  9  7  1  0  0  0  0
 10 11  1  0  0  0  0
 10  9  1  0  0  0  0
 11 12  1  0  0  0  0
 11 51  1  0  0  0  0
 12 17  1  6  0  0  0
 12 13  1  0  0  0  0
 12  6  1  0  0  0  0
 13 52  1  0  0  0  0
 13 14  1  0  0  0  0
 14 54  1  0  0  0  0
 14 15  1  0  0  0  0
 15 32  1  0  0  0  0
 15 16  1  1  0  0  0
 17 58  1  0  0  0  0
 18 19  1  0  0  0  0
 19 20  1  0  0  0  0
 20 29  2  0  0  0  0
 20 21  1  0  0  0  0
 21 22  2  0  0  0  0
 22 27  1  0  0  0  0
 22 23  1  0  0  0  0
 23 24  1  0  0  0  0
 23 26  1  0  0  0  0
 25 23  1  0  0  0  0
 27 60  1  0  0  0  0
 28 61  1  0  0  0  0
 28 27  2  0  0  0  0
 29 28  1  0  0  0  0
 30 19  2  0  0  0  0
 31 63  1  0  0  0  0
 31 64  1  0  0  0  0
 32 33  2  0  0  0  0
 33 66  1  0  0  0  0
 33 67  1  0  0  0  0
 34 35  1  0  0  0  0
 35 69  1  0  0  0  0
 35 68  1  0  0  0  0
 36 35  1  0  0  0  0
 36 37  1  1  0  0  0
 38 36  1  0  0  0  0
 39 38  1  0  0  0  0
 39 41  2  0  0  0  0
 40 72  1  0  0  0  0
 40 39  1  0  0  0  0
 42 43  1  0  0  0  0
 42 36  1  0  0  0  0
 43 74  1  0  0  0  0
 44 43  1  0  0  0  0
 44 76  1  0  0  0  0
 45 42  2  0  0  0  0
 48 10  1  0  0  0  0
 49 10  1  0  0  0  0
 50 11  1  0  0  0  0
 53 13  1  0  0  0  0
 55 14  1  0  0  0  0
 56 17  1  0  0  0  0
 57 17  1  0  0  0  0
 59 21  1  0  0  0  0
 62 29  1  0  0  0  0
 65 31  1  0  0  0  0
 70 38  1  0  0  0  0
 71 40  1  0  0  0  0
 73 40  1  0  0  0  0
 75 44  1  0  0  0  0
 77 44  1  0  0  0  0
M  END
