-1 1
 OpenBabel05232413493D

 72 74  0  0  1  0  0  0  0  0999 V2000
    3.5539    1.0857   -0.7309 O   0  0  0  0  0  0  0  0  0  0  0  0
    2.7535    0.4030   -0.1459 C   0  0  0  0  0  0  0  0  0  0  0  0
    1.4359    0.6512   -0.1729 O   0  0  0  0  0  0  0  0  0  0  0  0
    0.6742   -0.2993    0.6104 C   0  0  1  0  0  0  0  0  0  0  0  0
    0.0712    0.2994    1.3086 H   0  0  0  0  0  0  0  0  0  0  0  0
   -0.2263   -1.0765   -0.3350 C   0  0  0  0  0  0  0  0  0  0  0  0
    0.0064   -2.4375   -0.6054 C   0  0  0  0  0  0  0  0  0  0  0  0
    1.0935   -3.1896    0.1304 C   0  0  0  0  0  0  0  0  0  0  0  0
    1.3635   -2.5929    1.5048 C   0  0  0  0  0  0  0  0  0  0  0  0
    1.7099   -1.1165    1.4094 C   0  0  1  0  0  0  0  0  0  0  0  0
    1.7302   -0.6833    2.4310 H   0  0  0  0  0  0  0  0  0  0  0  0
   -0.7878   -3.0929   -1.5591 C   0  0  0  0  0  0  0  0  0  0  0  0
   -0.5511   -4.5403   -1.9115 C   0  0  0  0  0  0  0  0  0  0  0  0
   -1.8131   -2.3925   -2.1966 C   0  0  0  0  0  0  0  0  0  0  0  0
   -2.0653   -1.0557   -1.8900 C   0  0  0  0  0  0  0  0  0  0  0  0
   -3.0681   -0.3403   -2.4764 O   0  0  0  0  0  0  0  0  0  0  0  0
   -3.9063   -0.9642   -3.4028 C   0  0  0  0  0  0  0  0  0  0  0  0
   -4.9961    0.0052   -3.7943 C   0  0  0  0  0  0  0  0  0  0  0  0
   -5.8949    0.5656   -2.8668 C   0  0  0  0  0  0  0  0  0  0  0  0
   -5.8270    0.2797   -1.3774 C   0  0  0  0  0  0  0  0  0  0  0  0
   -5.5019   -0.9883   -1.1095 F   0  0  0  0  0  0  0  0  0  0  0  0
   -4.9533    1.0671   -0.7553 F   0  0  0  0  0  0  0  0  0  0  0  0
   -7.0199    0.4952   -0.7989 F   0  0  0  0  0  0  0  0  0  0  0  0
   -6.8787    1.4562   -3.3002 C   0  0  0  0  0  0  0  0  0  0  0  0
   -6.9932    1.7973   -4.6453 C   0  0  0  0  0  0  0  0  0  0  0  0
   -6.1148    1.2435   -5.5697 C   0  0  0  0  0  0  0  0  0  0  0  0
   -5.1281    0.3597   -5.1387 C   0  0  0  0  0  0  0  0  0  0  0  0
   -1.2697   -0.3713   -0.9595 C   0  0  0  0  0  0  0  0  0  0  0  0
   -1.5409    1.0780   -0.6491 C   0  0  0  0  0  0  0  0  0  0  0  0
    2.9967   -0.7896    0.7122 C   0  0  0  0  0  0  0  0  0  0  0  0
    4.1999   -1.3555    0.7910 C   0  0  0  0  0  0  0  0  0  0  0  0
    1.2897    1.0725    4.2423 S   0  0  0  0  0  1  0  0  0  0  0  0
    2.4579    1.8663    3.0790 C   0  0  0  0  0  0  0  0  0  0  0  0
    3.9813    1.7637    3.3269 C   0  0  2  0  0  0  0  0  0  0  0  0
    4.2264    2.2978    4.2586 H   0  0  0  0  0  0  0  0  0  0  0  0
    4.6684    2.4508    2.2551 N   0  0  0  0  0  0  0  0  0  0  0  0
    5.7735    3.2138    2.4543 C   0  0  0  0  0  0  0  0  0  0  0  0
    6.5488    3.5192    1.1836 C   0  0  0  0  0  0  0  0  0  0  0  0
    6.1343    3.6224    3.5430 O   0  0  0  0  0  0  0  0  0  0  0  0
    4.6084    0.3563    3.4665 C   0  0  0  0  0  0  0  0  0  0  0  0
    3.9097   -0.5109    4.2252 N   0  0  0  0  0  0  0  0  0  0  0  0
    4.3398   -1.8620    4.4385 C   0  0  0  0  0  0  0  0  0  0  0  0
    5.6841    0.0893    2.9433 O   0  0  0  0  0  0  0  0  0  0  0  0
    2.0253   -3.1773   -0.4645 H   0  0  0  0  0  0  0  0  0  0  0  0
    0.8130   -4.2481    0.2341 H   0  0  0  0  0  0  0  0  0  0  0  0
    2.1818   -3.1309    2.0085 H   0  0  0  0  0  0  0  0  0  0  0  0
    0.4722   -2.7091    2.1433 H   0  0  0  0  0  0  0  0  0  0  0  0
    0.4940   -4.7202   -2.2084 H   0  0  0  0  0  0  0  0  0  0  0  0
   -1.1962   -4.8557   -2.7439 H   0  0  0  0  0  0  0  0  0  0  0  0
   -0.7608   -5.2059   -1.0581 H   0  0  0  0  0  0  0  0  0  0  0  0
   -2.4179   -2.9176   -2.9370 H   0  0  0  0  0  0  0  0  0  0  0  0
   -4.3542   -1.8787   -2.9758 H   0  0  0  0  0  0  0  0  0  0  0  0
   -3.3427   -1.2615   -4.3062 H   0  0  0  0  0  0  0  0  0  0  0  0
   -7.5683    1.8838   -2.5718 H   0  0  0  0  0  0  0  0  0  0  0  0
   -7.7686    2.4962   -4.9650 H   0  0  0  0  0  0  0  0  0  0  0  0
   -6.1887    1.5033   -6.6278 H   0  0  0  0  0  0  0  0  0  0  0  0
   -4.4298   -0.0641   -5.8644 H   0  0  0  0  0  0  0  0  0  0  0  0
   -0.6305    1.6782   -0.7754 H   0  0  0  0  0  0  0  0  0  0  0  0
   -1.8661    1.1972    0.3966 H   0  0  0  0  0  0  0  0  0  0  0  0
   -2.3296    1.4779   -1.2938 H   0  0  0  0  0  0  0  0  0  0  0  0
    5.0396   -0.9248    0.2424 H   0  0  0  0  0  0  0  0  0  0  0  0
    4.3922   -2.2197    1.4299 H   0  0  0  0  0  0  0  0  0  0  0  0
    2.2488    2.9454    3.0369 H   0  0  0  0  0  0  0  0  0  0  0  0
    2.2690    1.5013    2.0564 H   0  0  0  0  0  0  0  0  0  0  0  0
    4.5419    2.0548    1.3287 H   0  0  0  0  0  0  0  0  0  0  0  0
    5.8933    3.6137    0.3058 H   0  0  0  0  0  0  0  0  0  0  0  0
    7.2462    2.6871    1.0009 H   0  0  0  0  0  0  0  0  0  0  0  0
    7.1271    4.4403    1.3269 H   0  0  0  0  0  0  0  0  0  0  0  0
    2.9581   -0.2061    4.5153 H   0  0  0  0  0  0  0  0  0  0  0  0
    3.6805   -2.5874    3.9269 H   0  0  0  0  0  0  0  0  0  0  0  0
    4.3455   -2.1161    5.5114 H   0  0  0  0  0  0  0  0  0  0  0  0
    5.3577   -1.9717    4.0403 H   0  0  0  0  0  0  0  0  0  0  0  0
  1  2  2  0  0  0  0
  2 30  1  0  0  0  0
  3  2  1  0  0  0  0
  3  4  1  0  0  0  0
  4  5  1  1  0  0  0
  4 10  1  0  0  0  0
  6  4  1  0  0  0  0
  7  6  1  0  0  0  0
  7  8  1  0  0  0  0
  8 45  1  0  0  0  0
  8  9  1  0  0  0  0
  9 46  1  0  0  0  0
  9 47  1  0  0  0  0
 10  9  1  0  0  0  0
 10 11  1  1  0  0  0
 12  7  2  0  0  0  0
 13 12  1  0  0  0  0
 13 50  1  0  0  0  0
 14 15  2  0  0  0  0
 14 12  1  0  0  0  0
 15 28  1  0  0  0  0
 16 15  1  0  0  0  0
 17 52  1  0  0  0  0
 17 16  1  0  0  0  0
 18 17  1  0  0  0  0
 18 19  1  0  0  0  0
 19 20  1  0  0  0  0
 20 21  1  0  0  0  0
 20 23  1  0  0  0  0
 20 22  1  0  0  0  0
 24 19  2  0  0  0  0
 24 54  1  0  0  0  0
 25 24  1  0  0  0  0
 26 27  1  0  0  0  0
 26 25  2  0  0  0  0
 27 18  2  0  0  0  0
 28 29  1  0  0  0  0
 28  6  2  0  0  0  0
 29 59  1  0  0  0  0
 30 31  2  0  0  0  0
 30 10  1  0  0  0  0
 31 62  1  0  0  0  0
 33 34  1  0  0  0  0
 33 32  1  0  0  0  0
 34 40  1  0  0  0  0
 34 35  1  1  0  0  0
 36 37  1  0  0  0  0
 36 34  1  0  0  0  0
 37 39  2  0  0  0  0
 38 68  1  0  0  0  0
 38 37  1  0  0  0  0
 40 41  1  0  0  0  0
 41 42  1  0  0  0  0
 41 69  1  0  0  0  0
 42 71  1  0  0  0  0
 43 40  2  0  0  0  0
 44  8  1  0  0  0  0
 48 13  1  0  0  0  0
 49 13  1  0  0  0  0
 51 14  1  0  0  0  0
 53 17  1  0  0  0  0
 55 25  1  0  0  0  0
 56 26  1  0  0  0  0
 57 27  1  0  0  0  0
 58 29  1  0  0  0  0
 60 29  1  0  0  0  0
 61 31  1  0  0  0  0
 63 33  1  0  0  0  0
 64 33  1  0  0  0  0
 65 36  1  0  0  0  0
 66 38  1  0  0  0  0
 67 38  1  0  0  0  0
 70 42  1  0  0  0  0
 72 42  1  0  0  0  0
M  END
