72
-1 1
O        -0.167657    5.435088   -7.659539
C        -1.115156    4.870615   -7.153615
O        -2.383026    5.371687   -7.342704
C        -3.369223    4.494490   -6.793620
H        -4.099297    5.132769   -6.272389
C        -4.087385    3.769483   -7.928937
C        -3.982475    2.375885   -8.093351
C        -3.227351    1.535855   -7.088435
C        -3.185471    2.188767   -5.715175
C        -2.611124    3.595179   -5.797751
H        -2.663094    4.053218   -4.791890
C        -4.587089    1.766649   -9.204607
C        -4.455561    0.283823   -9.447161
C        -5.315760    2.544678  -10.105000
C        -5.457824    3.917376   -9.907454
O        -6.182341    4.712997  -10.748860
C        -6.822148    4.141580  -11.849647
C        -7.643613    5.207659  -12.534574
C        -8.669630    5.921409  -11.886462
C        -9.019486    5.715382  -10.424131
F        -8.942077    4.436101  -10.047683
F        -8.238688    6.428120   -9.614808
F       -10.282109    6.105668  -10.179017
C        -9.389471    6.894462  -12.582221
C        -9.113885    7.169347  -13.919027
C        -8.107105    6.465091  -14.569625
C        -7.383291    5.498146  -13.875680
C        -4.837299    4.554531   -8.823751
C        -4.989295    6.042851   -8.639899
C        -1.200338    3.701351   -6.310951
C        -0.114720    2.979015   -5.881755
S         0.690565    3.865032   -3.694383
C         0.436664    5.555569   -4.292359
C         1.569110    6.363187   -4.984588
H         2.183772    6.841304   -4.204698
N         0.951339    7.433961   -5.732222
C         1.352977    8.724682   -5.635332
C         0.866106    9.606689   -6.772035
O         2.044362    9.161000   -4.730568
C         2.607104    5.696238   -5.924180
N         3.041339    4.467182   -5.563880
C         4.017692    3.749818   -6.334833
O         3.062064    6.317440   -6.870217
H        -2.194034    1.378365   -7.445071
H        -3.686390    0.538618   -7.012557
H        -2.580213    1.587431   -5.019114
H        -4.205376    2.228459   -5.293027
H        -3.400727   -0.031904   -9.457196
H        -4.902151   -0.001377  -10.410470
H        -4.957209   -0.303473   -8.660469
H        -5.775758    2.053890  -10.963733
H        -7.476735    3.308484  -11.537486
H        -6.085968    3.733081  -12.566058
H       -10.181564    7.439819  -12.068334
H        -9.686827    7.934512  -14.446382
H        -7.875386    6.671239  -15.616676
H        -6.582946    4.955585  -14.384405
H        -4.009135    6.513431   -8.493850
H        -5.599120    6.263603   -7.748185
H        -5.488613    6.496873   -9.501719
H         0.847136    3.158081   -6.365523
H        -0.249267    2.005638   -5.409419
H         0.087785    6.180819   -3.457403
H        -0.410942    5.510928   -4.996955
H         0.519879    7.121559   -6.601968
H        -0.156817    9.349686   -7.083182
H         1.531326    9.453183   -7.635655
H         0.916038   10.657554   -6.461814
H         2.511764    3.991168   -4.819796
H         3.564589    2.927301   -6.917095
H         4.796864    3.319391   -5.684583
H         4.483544    4.450727   -7.040062
