-1 1
 OpenBabel05232414493D

 72 74  0  0  1  0  0  0  0  0999 V2000
   -0.1677    5.4351   -7.6595 O   0  0  0  0  0  0  0  0  0  0  0  0
   -1.1152    4.8706   -7.1536 C   0  0  0  0  0  0  0  0  0  0  0  0
   -2.3830    5.3717   -7.3427 O   0  0  0  0  0  0  0  0  0  0  0  0
   -3.3692    4.4945   -6.7936 C   0  0  1  0  0  0  0  0  0  0  0  0
   -4.0993    5.1328   -6.2724 H   0  0  0  0  0  0  0  0  0  0  0  0
   -4.0874    3.7695   -7.9289 C   0  0  0  0  0  0  0  0  0  0  0  0
   -3.9825    2.3759   -8.0934 C   0  0  0  0  0  0  0  0  0  0  0  0
   -3.2274    1.5359   -7.0884 C   0  0  0  0  0  0  0  0  0  0  0  0
   -3.1855    2.1888   -5.7152 C   0  0  0  0  0  0  0  0  0  0  0  0
   -2.6111    3.5952   -5.7978 C   0  0  1  0  0  0  0  0  0  0  0  0
   -2.6631    4.0532   -4.7919 H   0  0  0  0  0  0  0  0  0  0  0  0
   -4.5871    1.7666   -9.2046 C   0  0  0  0  0  0  0  0  0  0  0  0
   -4.4556    0.2838   -9.4472 C   0  0  0  0  0  0  0  0  0  0  0  0
   -5.3158    2.5447  -10.1050 C   0  0  0  0  0  0  0  0  0  0  0  0
   -5.4578    3.9174   -9.9075 C   0  0  0  0  0  0  0  0  0  0  0  0
   -6.1823    4.7130  -10.7489 O   0  0  0  0  0  0  0  0  0  0  0  0
   -6.8221    4.1416  -11.8496 C   0  0  0  0  0  0  0  0  0  0  0  0
   -7.6436    5.2077  -12.5346 C   0  0  0  0  0  0  0  0  0  0  0  0
   -8.6696    5.9214  -11.8865 C   0  0  0  0  0  0  0  0  0  0  0  0
   -9.0195    5.7154  -10.4241 C   0  0  0  0  0  0  0  0  0  0  0  0
   -8.9421    4.4361  -10.0477 F   0  0  0  0  0  0  0  0  0  0  0  0
   -8.2387    6.4281   -9.6148 F   0  0  0  0  0  0  0  0  0  0  0  0
  -10.2821    6.1057  -10.1790 F   0  0  0  0  0  0  0  0  0  0  0  0
   -9.3895    6.8945  -12.5822 C   0  0  0  0  0  0  0  0  0  0  0  0
   -9.1139    7.1693  -13.9190 C   0  0  0  0  0  0  0  0  0  0  0  0
   -8.1071    6.4651  -14.5696 C   0  0  0  0  0  0  0  0  0  0  0  0
   -7.3833    5.4981  -13.8757 C   0  0  0  0  0  0  0  0  0  0  0  0
   -4.8373    4.5545   -8.8238 C   0  0  0  0  0  0  0  0  0  0  0  0
   -4.9893    6.0429   -8.6399 C   0  0  0  0  0  0  0  0  0  0  0  0
   -1.2003    3.7014   -6.3110 C   0  0  2  0  0  3  0  0  0  0  0  0
   -0.1147    2.9790   -5.8818 C   0  0  0  0  0  3  0  0  0  0  0  0
    0.6906    3.8650   -3.6944 S   0  0  0  0  0  1  0  0  0  0  0  0
    0.4367    5.5556   -4.2924 C   0  0  0  0  0  0  0  0  0  0  0  0
    1.5691    6.3632   -4.9846 C   0  0  2  0  0  0  0  0  0  0  0  0
    2.1838    6.8413   -4.2047 H   0  0  0  0  0  0  0  0  0  0  0  0
    0.9513    7.4340   -5.7322 N   0  0  0  0  0  0  0  0  0  0  0  0
    1.3530    8.7247   -5.6353 C   0  0  0  0  0  0  0  0  0  0  0  0
    0.8661    9.6067   -6.7720 C   0  0  0  0  0  0  0  0  0  0  0  0
    2.0444    9.1610   -4.7306 O   0  0  0  0  0  0  0  0  0  0  0  0
    2.6071    5.6962   -5.9242 C   0  0  0  0  0  0  0  0  0  0  0  0
    3.0413    4.4672   -5.5639 N   0  0  0  0  0  0  0  0  0  0  0  0
    4.0177    3.7498   -6.3348 C   0  0  0  0  0  0  0  0  0  0  0  0
    3.0621    6.3174   -6.8702 O   0  0  0  0  0  0  0  0  0  0  0  0
   -2.1940    1.3784   -7.4451 H   0  0  0  0  0  0  0  0  0  0  0  0
   -3.6864    0.5386   -7.0126 H   0  0  0  0  0  0  0  0  0  0  0  0
   -2.5802    1.5874   -5.0191 H   0  0  0  0  0  0  0  0  0  0  0  0
   -4.2054    2.2285   -5.2930 H   0  0  0  0  0  0  0  0  0  0  0  0
   -3.4007   -0.0319   -9.4572 H   0  0  0  0  0  0  0  0  0  0  0  0
   -4.9022   -0.0014  -10.4105 H   0  0  0  0  0  0  0  0  0  0  0  0
   -4.9572   -0.3035   -8.6605 H   0  0  0  0  0  0  0  0  0  0  0  0
   -5.7758    2.0539  -10.9637 H   0  0  0  0  0  0  0  0  0  0  0  0
   -7.4767    3.3085  -11.5375 H   0  0  0  0  0  0  0  0  0  0  0  0
   -6.0860    3.7331  -12.5661 H   0  0  0  0  0  0  0  0  0  0  0  0
  -10.1816    7.4398  -12.0683 H   0  0  0  0  0  0  0  0  0  0  0  0
   -9.6868    7.9345  -14.4464 H   0  0  0  0  0  0  0  0  0  0  0  0
   -7.8754    6.6712  -15.6167 H   0  0  0  0  0  0  0  0  0  0  0  0
   -6.5829    4.9556  -14.3844 H   0  0  0  0  0  0  0  0  0  0  0  0
   -4.0091    6.5134   -8.4939 H   0  0  0  0  0  0  0  0  0  0  0  0
   -5.5991    6.2636   -7.7482 H   0  0  0  0  0  0  0  0  0  0  0  0
   -5.4886    6.4969   -9.5017 H   0  0  0  0  0  0  0  0  0  0  0  0
    0.8471    3.1581   -6.3655 H   0  0  0  0  0  0  0  0  0  0  0  0
   -0.2493    2.0056   -5.4094 H   0  0  0  0  0  0  0  0  0  0  0  0
    0.0878    6.1808   -3.4574 H   0  0  0  0  0  0  0  0  0  0  0  0
   -0.4109    5.5109   -4.9970 H   0  0  0  0  0  0  0  0  0  0  0  0
    0.5199    7.1216   -6.6020 H   0  0  0  0  0  0  0  0  0  0  0  0
   -0.1568    9.3497   -7.0832 H   0  0  0  0  0  0  0  0  0  0  0  0
    1.5313    9.4532   -7.6357 H   0  0  0  0  0  0  0  0  0  0  0  0
    0.9160   10.6576   -6.4618 H   0  0  0  0  0  0  0  0  0  0  0  0
    2.5118    3.9912   -4.8198 H   0  0  0  0  0  0  0  0  0  0  0  0
    3.5646    2.9273   -6.9171 H   0  0  0  0  0  0  0  0  0  0  0  0
    4.7969    3.3194   -5.6846 H   0  0  0  0  0  0  0  0  0  0  0  0
    4.4835    4.4507   -7.0401 H   0  0  0  0  0  0  0  0  0  0  0  0
  1  2  2  0  0  0  0
  2 30  1  0  0  0  0
  3  2  1  0  0  0  0
  3  4  1  0  0  0  0
  4  5  1  1  0  0  0
  4 10  1  0  0  0  0
  6  4  1  0  0  0  0
  7  6  1  0  0  0  0
  7  8  1  0  0  0  0
  8 45  1  0  0  0  0
  8  9  1  0  0  0  0
  9 47  1  0  0  0  0
  9 46  1  0  0  0  0
 10  9  1  0  0  0  0
 10 11  1  1  0  0  0
 12  7  2  0  0  0  0
 13 12  1  0  0  0  0
 13 50  1  0  0  0  0
 14 15  2  0  0  0  0
 14 12  1  0  0  0  0
 15 28  1  0  0  0  0
 16 15  1  0  0  0  0
 17 52  1  0  0  0  0
 17 16  1  0  0  0  0
 18 19  1  0  0  0  0
 18 17  1  0  0  0  0
 19 20  1  0  0  0  0
 20 23  1  0  0  0  0
 20 21  1  0  0  0  0
 20 22  1  0  0  0  0
 24 54  1  0  0  0  0
 24 19  2  0  0  0  0
 25 24  1  0  0  0  0
 26 25  2  0  0  0  0
 26 27  1  0  0  0  0
 27 18  2  0  0  0  0
 28 29  1  0  0  0  0
 28  6  2  0  0  0  0
 29 58  1  0  0  0  0
 29 59  1  0  0  0  0
 30 31  1  1  0  0  0
 30 10  1  0  0  0  0
 31 62  1  0  0  0  0
 33 32  1  0  0  0  0
 33 63  1  0  0  0  0
 34 33  1  0  0  0  0
 34 35  1  1  0  0  0
 36 37  1  0  0  0  0
 36 34  1  0  0  0  0
 37 39  2  0  0  0  0
 38 68  1  0  0  0  0
 38 37  1  0  0  0  0
 40 41  1  0  0  0  0
 40 34  1  0  0  0  0
 41 69  1  0  0  0  0
 42 71  1  0  0  0  0
 42 41  1  0  0  0  0
 43 40  2  0  0  0  0
 44  8  1  0  0  0  0
 48 13  1  0  0  0  0
 49 13  1  0  0  0  0
 51 14  1  0  0  0  0
 53 17  1  0  0  0  0
 55 25  1  0  0  0  0
 56 26  1  0  0  0  0
 57 27  1  0  0  0  0
 60 29  1  0  0  0  0
 61 31  1  0  0  0  0
 64 33  1  0  0  0  0
 65 36  1  0  0  0  0
 66 38  1  0  0  0  0
 67 38  1  0  0  0  0
 70 42  1  0  0  0  0
 72 42  1  0  0  0  0
M  END
