68
-1 1
O        -1.808306    4.751161   -4.431670
C        -2.601271    3.990003   -4.951588
O        -3.581417    4.506003   -5.769415
C        -4.432966    3.480425   -6.291560
H        -5.452705    3.741529   -5.980011
C        -4.340080    3.534184   -7.805739
C        -3.636682    2.557708   -8.528196
C        -3.032117    1.385067   -7.790298
C        -3.871815    0.995036   -6.582712
C        -4.011969    2.159786   -5.605504
H        -4.791397    1.882726   -4.869465
C        -3.490311    2.681653   -9.923945
C        -2.719436    1.663998  -10.727222
C        -4.059768    3.775447  -10.569087
C        -4.758747    4.727042   -9.838371
O        -5.255899    5.867343  -10.466496
C        -6.126860    5.788648  -11.481684
C        -6.574790    7.150065  -11.916947
C        -7.464880    7.232828  -12.992183
C        -7.915823    8.474080  -13.431179
C        -7.480084    9.637764  -12.795769
C        -6.593820    9.558039  -11.721532
C        -6.139545    8.317179  -11.280465
O        -6.507435    4.765978  -11.985158
C        -4.917625    4.644633   -8.456477
C        -5.620953    5.752476   -7.715035
C        -2.758337    2.562201   -4.881040
C        -2.027915    1.749076   -4.030169
S        -3.027276    1.475809   -1.906838
C        -3.367182    3.257749   -1.765717
C        -4.723912    3.715913   -2.343973
H        -4.955836    3.106057   -3.229664
N        -4.642529    5.094940   -2.758591
C        -5.417342    5.602660   -3.746118
C        -5.005589    6.979605   -4.223629
O        -6.344809    4.984143   -4.248079
C        -5.865078    3.499502   -1.337806
N        -6.110204    2.182453   -1.100411
C        -7.045664    1.747316   -0.100171
O        -6.471371    4.410598   -0.806483
H        -2.016988    1.654013   -7.446074
H        -2.918247    0.524952   -8.465572
H        -3.421292    0.136166   -6.060333
H        -4.870374    0.670267   -6.924281
H        -1.695401    1.535567  -10.342990
H        -2.649263    1.967477  -11.781280
H        -3.201360    0.673182  -10.697823
H        -3.962297    3.892732  -11.649327
H        -7.792060    6.306690  -13.468479
H        -8.611543    8.535899  -14.270905
H        -7.835190   10.612582  -13.138535
H        -6.255456   10.468228  -11.221790
H        -5.449256    8.241438  -10.439621
H        -6.395689    6.217381   -8.339002
H        -4.895668    6.535085   -7.441501
H        -6.078714    5.414951   -6.776254
H        -1.108012    2.159703   -3.608183
H        -2.022518    0.668705   -4.189922
H        -2.576629    3.788079   -2.315772
H        -3.296634    3.562021   -0.708637
H        -3.805920    5.604756   -2.508031
H        -4.154800    6.847985   -4.909401
H        -4.693973    7.629441   -3.392891
H        -5.843026    7.440228   -4.761209
H        -5.417174    1.521590   -1.460546
H        -6.539874    1.342418    0.793745
H        -7.719773    0.970425   -0.496077
H        -7.644468    2.616022    0.203591
