68
-1 1
O         3.212205   -0.108179    2.632267
C         2.437318   -0.776492    1.933802
O         1.776253   -0.106957    0.891368
C         0.707226   -0.914183    0.404203
H        -0.224749   -0.514748    0.829598
C         0.677442   -0.771794   -1.103889
C         1.464502   -1.645386   -1.877471
C         2.193230   -2.755959   -1.159026
C         1.281194   -3.382495   -0.109313
C         0.920608   -2.349086    0.969177
H        -0.021493   -2.678673    1.451102
C         1.541935   -1.487589   -3.271226
C         2.383138   -2.401300   -4.128309
C         0.825846   -0.452718   -3.872813
C         0.055823    0.397436   -3.095184
O        -0.598709    1.487488   -3.667191
C        -1.468165    1.347935   -4.675146
C        -2.104165    2.658650   -5.025416
C        -2.994093    2.686622   -6.103567
C        -3.616228    3.877971   -6.464870
C        -3.353539    5.045970   -5.747542
C        -2.468982    5.020234   -4.669264
C        -1.842854    3.829802   -4.306611
O        -1.716428    0.314236   -5.236426
C        -0.038933    0.278815   -1.706262
C        -0.849186    1.303717   -0.952629
C         2.005267   -2.098316    1.977943
C         2.392570   -3.040785    3.030723
S         1.255221   -3.111757    4.557683
C         1.242634   -1.330788    4.919942
C         0.148005   -0.543585    4.166972
H        -0.131150   -1.113420    3.266422
N         0.647340    0.751119    3.769300
C        -0.061322    1.467592    2.857145
C         0.687877    2.623912    2.234949
O        -1.201846    1.168008    2.529758
C        -1.098419   -0.430673    5.049470
N        -1.886397   -1.542137    4.979600
C        -3.056505   -1.717308    5.794348
O        -1.325717    0.506478    5.787315
H         3.080904   -2.346735   -0.644327
H         2.552916   -3.514300   -1.867810
H         1.776518   -4.243445    0.368430
H         0.372400   -3.766355   -0.606732
H         3.436755   -2.402591   -3.807926
H         2.351832   -2.088916   -5.181805
H         2.029194   -3.443770   -4.080045
H         0.863701   -0.309090   -4.953418
H        -3.184603    1.757596   -6.644194
H        -4.310704    3.896992   -7.307729
H        -3.843271    5.981345   -6.028904
H        -2.266748    5.932887   -4.104593
H        -1.152929    3.795767   -3.462867
H        -1.841617    1.430990   -1.410289
H        -0.348691    2.284404   -1.000036
H        -0.990798    1.067646    0.107922
H         3.381134   -2.789817    3.440850
H         2.406564   -4.094693    2.706257
H         2.229528   -0.944627    4.627216
H         1.135967   -1.201572    6.006674
H         1.664767    0.804318    3.667239
H         1.353392    2.199875    1.466729
H         1.305710    3.153850    2.973273
H        -0.028825    3.313727    1.773054
H        -1.575758   -2.297898    4.380374
H        -2.955680   -2.574039    6.481713
H        -3.960555   -1.866048    5.180890
H        -3.182963   -0.802454    6.387965
