68
-1 1
O         3.281818    0.859289    1.720716
C         2.486989    0.036047    1.355983
O         1.303072    0.370993    0.814862
C         0.562072   -0.781854    0.357174
H        -0.461000   -0.636391    0.727984
C         0.576431   -0.774260   -1.162492
C         1.192550   -1.800782   -1.896999
C         1.805530   -2.993236   -1.194717
C         1.200553   -3.242330    0.178292
C         1.226070   -1.990796    1.036070
H         0.700467   -2.233366    1.979300
C         1.256967   -1.715965   -3.303327
C         1.938764   -2.785174   -4.118803
C         0.689392   -0.620640   -3.944310
C         0.061264    0.371075   -3.201451
O        -0.445041    1.504970   -3.829302
C        -1.357141    1.422270   -4.809510
C        -1.806418    2.781955   -5.245976
C        -2.736148    2.860008   -6.287587
C        -3.190127    4.100241   -6.726144
C        -2.717852    5.267321   -6.123937
C        -1.792145    5.192251   -5.083161
C        -1.334720    3.952505   -4.642479
O        -1.766690    0.396212   -5.281728
C        -0.018663    0.330150   -1.811333
C        -0.675643    1.462841   -1.065205
C         2.574720   -1.452948    1.409641
C         3.677437   -2.091154    1.798712
S         0.702152   -3.468298    4.300119
C         0.915523   -1.664962    4.518673
C        -0.354628   -0.829140    4.246083
H        -0.879876   -1.258476    3.380017
N        -0.021686    0.531427    3.892890
C        -0.640903    1.223134    2.909863
C        -0.149678    2.643266    2.721075
O        -1.480672    0.730673    2.167093
C        -1.328671   -0.833893    5.437201
N        -1.702607   -2.073230    5.822758
C        -2.526439   -2.301387    6.976673
O        -1.706943    0.200618    5.968266
H         2.894800   -2.831448   -1.096180
H         1.689991   -3.892146   -1.818373
H         1.721596   -4.054845    0.705701
H         0.153317   -3.569818    0.070773
H         2.972807   -2.956170   -3.780620
H         1.971288   -2.507960   -5.181680
H         1.412421   -3.750569   -4.042474
H         0.726945   -0.535885   -5.031088
H        -3.091828    1.931544   -6.738203
H        -3.916967    4.158632   -7.539275
H        -3.075473    6.241326   -6.466301
H        -1.425509    6.105241   -4.609197
H        -0.614197    3.880547   -3.827070
H        -1.469492    1.919591   -1.670631
H         0.066927    2.244628   -0.840124
H        -1.101311    1.152597   -0.101497
H         4.559836   -1.515415    2.089733
H         3.711039   -3.180377    1.869363
H         1.688988   -1.295405    3.827143
H         1.281846   -1.436205    5.536097
H         0.534006    1.051279    4.558470
H         0.732175    2.608363    2.063253
H         0.136265    3.121350    3.669087
H        -0.937000    3.230461    2.233095
H        -1.180996   -2.856649    5.393061
H        -1.952156   -2.738524    7.812071
H        -3.358818   -2.984716    6.741282
H        -2.938201   -1.337293    7.303963
