-1 1
 OpenBabel05232413493D

 68 70  0  0  1  0  0  0  0  0999 V2000
    3.2818    0.8593    1.7207 O   0  0  0  0  0  0  0  0  0  0  0  0
    2.4870    0.0360    1.3560 C   0  0  0  0  0  0  0  0  0  0  0  0
    1.3031    0.3710    0.8149 O   0  0  0  0  0  0  0  0  0  0  0  0
    0.5621   -0.7819    0.3572 C   0  0  1  0  0  0  0  0  0  0  0  0
   -0.4610   -0.6364    0.7280 H   0  0  0  0  0  0  0  0  0  0  0  0
    0.5764   -0.7743   -1.1625 C   0  0  0  0  0  0  0  0  0  0  0  0
    1.1925   -1.8008   -1.8970 C   0  0  0  0  0  0  0  0  0  0  0  0
    1.8055   -2.9932   -1.1947 C   0  0  0  0  0  0  0  0  0  0  0  0
    1.2006   -3.2423    0.1783 C   0  0  0  0  0  0  0  0  0  0  0  0
    1.2261   -1.9908    1.0361 C   0  0  1  0  0  0  0  0  0  0  0  0
    0.7005   -2.2334    1.9793 H   0  0  0  0  0  0  0  0  0  0  0  0
    1.2570   -1.7160   -3.3033 C   0  0  0  0  0  0  0  0  0  0  0  0
    1.9388   -2.7852   -4.1188 C   0  0  0  0  0  0  0  0  0  0  0  0
    0.6894   -0.6206   -3.9443 C   0  0  0  0  0  0  0  0  0  0  0  0
    0.0613    0.3711   -3.2015 C   0  0  0  0  0  0  0  0  0  0  0  0
   -0.4450    1.5050   -3.8293 O   0  0  0  0  0  0  0  0  0  0  0  0
   -1.3571    1.4223   -4.8095 C   0  0  0  0  0  0  0  0  0  0  0  0
   -1.8064    2.7820   -5.2460 C   0  0  0  0  0  0  0  0  0  0  0  0
   -2.7361    2.8600   -6.2876 C   0  0  0  0  0  0  0  0  0  0  0  0
   -3.1901    4.1002   -6.7261 C   0  0  0  0  0  0  0  0  0  0  0  0
   -2.7179    5.2673   -6.1239 C   0  0  0  0  0  0  0  0  0  0  0  0
   -1.7921    5.1923   -5.0832 C   0  0  0  0  0  0  0  0  0  0  0  0
   -1.3347    3.9525   -4.6425 C   0  0  0  0  0  0  0  0  0  0  0  0
   -1.7667    0.3962   -5.2817 O   0  0  0  0  0  0  0  0  0  0  0  0
   -0.0187    0.3301   -1.8113 C   0  0  0  0  0  0  0  0  0  0  0  0
   -0.6756    1.4628   -1.0652 C   0  0  0  0  0  0  0  0  0  0  0  0
    2.5747   -1.4529    1.4096 C   0  0  0  0  0  0  0  0  0  0  0  0
    3.6774   -2.0912    1.7987 C   0  0  0  0  0  0  0  0  0  0  0  0
    0.7022   -3.4683    4.3001 S   0  0  0  0  0  1  0  0  0  0  0  0
    0.9155   -1.6650    4.5187 C   0  0  0  0  0  0  0  0  0  0  0  0
   -0.3546   -0.8291    4.2461 C   0  0  2  0  0  0  0  0  0  0  0  0
   -0.8799   -1.2585    3.3800 H   0  0  0  0  0  0  0  0  0  0  0  0
   -0.0217    0.5314    3.8929 N   0  0  0  0  0  0  0  0  0  0  0  0
   -0.6409    1.2231    2.9099 C   0  0  0  0  0  0  0  0  0  0  0  0
   -0.1497    2.6433    2.7211 C   0  0  0  0  0  0  0  0  0  0  0  0
   -1.4807    0.7307    2.1671 O   0  0  0  0  0  0  0  0  0  0  0  0
   -1.3287   -0.8339    5.4372 C   0  0  0  0  0  0  0  0  0  0  0  0
   -1.7026   -2.0732    5.8228 N   0  0  0  0  0  0  0  0  0  0  0  0
   -2.5264   -2.3014    6.9767 C   0  0  0  0  0  0  0  0  0  0  0  0
   -1.7069    0.2006    5.9683 O   0  0  0  0  0  0  0  0  0  0  0  0
    2.8948   -2.8314   -1.0962 H   0  0  0  0  0  0  0  0  0  0  0  0
    1.6900   -3.8921   -1.8184 H   0  0  0  0  0  0  0  0  0  0  0  0
    1.7216   -4.0548    0.7057 H   0  0  0  0  0  0  0  0  0  0  0  0
    0.1533   -3.5698    0.0708 H   0  0  0  0  0  0  0  0  0  0  0  0
    2.9728   -2.9562   -3.7806 H   0  0  0  0  0  0  0  0  0  0  0  0
    1.9713   -2.5080   -5.1817 H   0  0  0  0  0  0  0  0  0  0  0  0
    1.4124   -3.7506   -4.0425 H   0  0  0  0  0  0  0  0  0  0  0  0
    0.7269   -0.5359   -5.0311 H   0  0  0  0  0  0  0  0  0  0  0  0
   -3.0918    1.9315   -6.7382 H   0  0  0  0  0  0  0  0  0  0  0  0
   -3.9170    4.1586   -7.5393 H   0  0  0  0  0  0  0  0  0  0  0  0
   -3.0755    6.2413   -6.4663 H   0  0  0  0  0  0  0  0  0  0  0  0
   -1.4255    6.1052   -4.6092 H   0  0  0  0  0  0  0  0  0  0  0  0
   -0.6142    3.8805   -3.8271 H   0  0  0  0  0  0  0  0  0  0  0  0
   -1.4695    1.9196   -1.6706 H   0  0  0  0  0  0  0  0  0  0  0  0
    0.0669    2.2446   -0.8401 H   0  0  0  0  0  0  0  0  0  0  0  0
   -1.1013    1.1526   -0.1015 H   0  0  0  0  0  0  0  0  0  0  0  0
    4.5598   -1.5154    2.0897 H   0  0  0  0  0  0  0  0  0  0  0  0
    3.7110   -3.1804    1.8694 H   0  0  0  0  0  0  0  0  0  0  0  0
    1.6890   -1.2954    3.8271 H   0  0  0  0  0  0  0  0  0  0  0  0
    1.2818   -1.4362    5.5361 H   0  0  0  0  0  0  0  0  0  0  0  0
    0.5340    1.0513    4.5585 H   0  0  0  0  0  0  0  0  0  0  0  0
    0.7322    2.6084    2.0633 H   0  0  0  0  0  0  0  0  0  0  0  0
    0.1363    3.1214    3.6691 H   0  0  0  0  0  0  0  0  0  0  0  0
   -0.9370    3.2305    2.2331 H   0  0  0  0  0  0  0  0  0  0  0  0
   -1.1810   -2.8566    5.3931 H   0  0  0  0  0  0  0  0  0  0  0  0
   -1.9522   -2.7385    7.8121 H   0  0  0  0  0  0  0  0  0  0  0  0
   -3.3588   -2.9847    6.7413 H   0  0  0  0  0  0  0  0  0  0  0  0
   -2.9382   -1.3373    7.3040 H   0  0  0  0  0  0  0  0  0  0  0  0
  2 27  1  0  0  0  0
  2  1  2  0  0  0  0
  3  2  1  0  0  0  0
  4  5  1  1  0  0  0
  4  3  1  0  0  0  0
  4 10  1  0  0  0  0
  6  4  1  0  0  0  0
  7  8  1  0  0  0  0
  7  6  2  0  0  0  0
  8 41  1  0  0  0  0
  8  9  1  0  0  0  0
  9 43  1  0  0  0  0
  9 10  1  0  0  0  0
 10 27  1  0  0  0  0
 10 11  1  1  0  0  0
 12  7  1  0  0  0  0
 13 47  1  0  0  0  0
 13 45  1  0  0  0  0
 13 12  1  0  0  0  0
 14 12  2  0  0  0  0
 14 15  1  0  0  0  0
 15 25  2  0  0  0  0
 16 15  1  0  0  0  0
 17 16  1  0  0  0  0
 18 17  1  0  0  0  0
 18 23  1  0  0  0  0
 19 18  2  0  0  0  0
 20 19  1  0  0  0  0
 20 21  2  0  0  0  0
 21 22  1  0  0  0  0
 22 23  2  0  0  0  0
 22 52  1  0  0  0  0
 23 53  1  0  0  0  0
 24 17  2  0  0  0  0
 25  6  1  0  0  0  0
 25 26  1  0  0  0  0
 26 55  1  0  0  0  0
 26 56  1  0  0  0  0
 27 28  2  0  0  0  0
 28 58  1  0  0  0  0
 28 57  1  0  0  0  0
 29 30  1  0  0  0  0
 30 60  1  0  0  0  0
 31 32  1  6  0  0  0
 31 30  1  0  0  0  0
 31 37  1  0  0  0  0
 33 31  1  0  0  0  0
 33 61  1  0  0  0  0
 34 33  1  0  0  0  0
 35 34  1  0  0  0  0
 35 63  1  0  0  0  0
 36 34  2  0  0  0  0
 37 38  1  0  0  0  0
 37 40  2  0  0  0  0
 38 39  1  0  0  0  0
 39 68  1  0  0  0  0
 39 66  1  0  0  0  0
 42  8  1  0  0  0  0
 44  9  1  0  0  0  0
 46 13  1  0  0  0  0
 48 14  1  0  0  0  0
 49 19  1  0  0  0  0
 50 20  1  0  0  0  0
 51 21  1  0  0  0  0
 54 26  1  0  0  0  0
 59 30  1  0  0  0  0
 62 35  1  0  0  0  0
 64 35  1  0  0  0  0
 65 38  1  0  0  0  0
 67 39  1  0  0  0  0
M  END
