-1 1
 OpenBabel05192410563D

 68 71  0  0  1  0  0  0  0  0999 V2000
    3.2122   -0.1082    2.6323 O   0  0  0  0  0  0  0  0  0  0  0  0
    2.4373   -0.7765    1.9338 C   0  0  0  0  0  0  0  0  0  0  0  0
    1.7763   -0.1070    0.8914 O   0  0  0  0  0  0  0  0  0  0  0  0
    0.7072   -0.9142    0.4042 C   0  0  1  0  0  0  0  0  0  0  0  0
   -0.2247   -0.5147    0.8296 H   0  0  0  0  0  0  0  0  0  0  0  0
    0.6774   -0.7718   -1.1039 C   0  0  0  0  0  0  0  0  0  0  0  0
    1.4645   -1.6454   -1.8775 C   0  0  0  0  0  0  0  0  0  0  0  0
    2.1932   -2.7560   -1.1590 C   0  0  0  0  0  0  0  0  0  0  0  0
    1.2812   -3.3825   -0.1093 C   0  0  0  0  0  0  0  0  0  0  0  0
    0.9206   -2.3491    0.9692 C   0  0  1  0  0  0  0  0  0  0  0  0
   -0.0215   -2.6787    1.4511 H   0  0  0  0  0  0  0  0  0  0  0  0
    1.5419   -1.4876   -3.2712 C   0  0  0  0  0  0  0  0  0  0  0  0
    2.3831   -2.4013   -4.1283 C   0  0  0  0  0  0  0  0  0  0  0  0
    0.8258   -0.4527   -3.8728 C   0  0  0  0  0  0  0  0  0  0  0  0
    0.0558    0.3974   -3.0952 C   0  0  0  0  0  0  0  0  0  0  0  0
   -0.5987    1.4875   -3.6672 O   0  0  0  0  0  0  0  0  0  0  0  0
   -1.4682    1.3479   -4.6751 C   0  0  0  0  0  0  0  0  0  0  0  0
   -2.1042    2.6587   -5.0254 C   0  0  0  0  0  0  0  0  0  0  0  0
   -2.9941    2.6866   -6.1036 C   0  0  0  0  0  0  0  0  0  0  0  0
   -3.6162    3.8780   -6.4649 C   0  0  0  0  0  0  0  0  0  0  0  0
   -3.3535    5.0460   -5.7475 C   0  0  0  0  0  0  0  0  0  0  0  0
   -2.4690    5.0202   -4.6693 C   0  0  0  0  0  0  0  0  0  0  0  0
   -1.8429    3.8298   -4.3066 C   0  0  0  0  0  0  0  0  0  0  0  0
   -1.7164    0.3142   -5.2364 O   0  0  0  0  0  0  0  0  0  0  0  0
   -0.0389    0.2788   -1.7063 C   0  0  0  0  0  0  0  0  0  0  0  0
   -0.8492    1.3037   -0.9526 C   0  0  0  0  0  0  0  0  0  0  0  0
    2.0053   -2.0983    1.9779 C   0  0  2  0  0  3  0  0  0  0  0  0
    2.3926   -3.0408    3.0307 C   0  0  0  0  0  0  0  0  0  0  0  0
    1.2552   -3.1118    4.5577 S   0  0  0  0  0  0  0  0  0  0  0  0
    1.2426   -1.3308    4.9199 C   0  0  0  0  0  0  0  0  0  0  0  0
    0.1480   -0.5436    4.1670 C   0  0  2  0  0  0  0  0  0  0  0  0
   -0.1311   -1.1134    3.2664 H   0  0  0  0  0  0  0  0  0  0  0  0
    0.6473    0.7511    3.7693 N   0  0  0  0  0  0  0  0  0  0  0  0
   -0.0613    1.4676    2.8571 C   0  0  0  0  0  0  0  0  0  0  0  0
    0.6879    2.6239    2.2349 C   0  0  0  0  0  0  0  0  0  0  0  0
   -1.2018    1.1680    2.5298 O   0  0  0  0  0  0  0  0  0  0  0  0
   -1.0984   -0.4307    5.0495 C   0  0  0  0  0  0  0  0  0  0  0  0
   -1.8864   -1.5421    4.9796 N   0  0  0  0  0  0  0  0  0  0  0  0
   -3.0565   -1.7173    5.7943 C   0  0  0  0  0  0  0  0  0  0  0  0
   -1.3257    0.5065    5.7873 O   0  0  0  0  0  0  0  0  0  0  0  0
    3.0809   -2.3467   -0.6443 H   0  0  0  0  0  0  0  0  0  0  0  0
    2.5529   -3.5143   -1.8678 H   0  0  0  0  0  0  0  0  0  0  0  0
    1.7765   -4.2434    0.3684 H   0  0  0  0  0  0  0  0  0  0  0  0
    0.3724   -3.7664   -0.6067 H   0  0  0  0  0  0  0  0  0  0  0  0
    3.4368   -2.4026   -3.8079 H   0  0  0  0  0  0  0  0  0  0  0  0
    2.3518   -2.0889   -5.1818 H   0  0  0  0  0  0  0  0  0  0  0  0
    2.0292   -3.4438   -4.0800 H   0  0  0  0  0  0  0  0  0  0  0  0
    0.8637   -0.3091   -4.9534 H   0  0  0  0  0  0  0  0  0  0  0  0
   -3.1846    1.7576   -6.6442 H   0  0  0  0  0  0  0  0  0  0  0  0
   -4.3107    3.8970   -7.3077 H   0  0  0  0  0  0  0  0  0  0  0  0
   -3.8433    5.9813   -6.0289 H   0  0  0  0  0  0  0  0  0  0  0  0
   -2.2667    5.9329   -4.1046 H   0  0  0  0  0  0  0  0  0  0  0  0
   -1.1529    3.7958   -3.4629 H   0  0  0  0  0  0  0  0  0  0  0  0
   -1.8416    1.4310   -1.4103 H   0  0  0  0  0  0  0  0  0  0  0  0
   -0.3487    2.2844   -1.0000 H   0  0  0  0  0  0  0  0  0  0  0  0
   -0.9908    1.0676    0.1079 H   0  0  0  0  0  0  0  0  0  0  0  0
    3.3811   -2.7898    3.4409 H   0  0  0  0  0  0  0  0  0  0  0  0
    2.4066   -4.0947    2.7063 H   0  0  0  0  0  0  0  0  0  0  0  0
    2.2295   -0.9446    4.6272 H   0  0  0  0  0  0  0  0  0  0  0  0
    1.1360   -1.2016    6.0067 H   0  0  0  0  0  0  0  0  0  0  0  0
    1.6648    0.8043    3.6672 H   0  0  0  0  0  0  0  0  0  0  0  0
    1.3534    2.1999    1.4667 H   0  0  0  0  0  0  0  0  0  0  0  0
    1.3057    3.1538    2.9733 H   0  0  0  0  0  0  0  0  0  0  0  0
   -0.0288    3.3137    1.7731 H   0  0  0  0  0  0  0  0  0  0  0  0
   -1.5758   -2.2979    4.3804 H   0  0  0  0  0  0  0  0  0  0  0  0
   -2.9557   -2.5740    6.4817 H   0  0  0  0  0  0  0  0  0  0  0  0
   -3.9606   -1.8660    5.1809 H   0  0  0  0  0  0  0  0  0  0  0  0
   -3.1830   -0.8025    6.3880 H   0  0  0  0  0  0  0  0  0  0  0  0
  2 27  1  0  0  0  0
  2  1  2  0  0  0  0
  3  2  1  0  0  0  0
  4  5  1  1  0  0  0
  4  3  1  0  0  0  0
  4 10  1  0  0  0  0
  6  4  1  0  0  0  0
  7  8  1  0  0  0  0
  7  6  2  0  0  0  0
  8 41  1  0  0  0  0
  8  9  1  0  0  0  0
  9 43  1  0  0  0  0
  9 10  1  0  0  0  0
 10 11  1  1  0  0  0
 10 27  1  0  0  0  0
 12  7  1  0  0  0  0
 13 47  1  0  0  0  0
 13 45  1  0  0  0  0
 13 12  1  0  0  0  0
 14 12  2  0  0  0  0
 14 15  1  0  0  0  0
 15 25  2  0  0  0  0
 16 15  1  0  0  0  0
 17 16  1  0  0  0  0
 18 17  1  0  0  0  0
 18 23  1  0  0  0  0
 19 18  2  0  0  0  0
 20 19  1  0  0  0  0
 20 21  2  0  0  0  0
 21 22  1  0  0  0  0
 22 23  2  0  0  0  0
 22 52  1  0  0  0  0
 23 53  1  0  0  0  0
 24 17  2  0  0  0  0
 25  6  1  0  0  0  0
 25 26  1  0  0  0  0
 26 56  1  0  0  0  0
 27 28  1  1  0  0  0
 28 57  1  0  0  0  0
 28 29  1  0  0  0  0
 29 30  1  0  0  0  0
 30 60  1  0  0  0  0
 31 32  1  6  0  0  0
 31 30  1  0  0  0  0
 31 37  1  0  0  0  0
 33 31  1  0  0  0  0
 34 33  1  0  0  0  0
 35 34  1  0  0  0  0
 35 63  1  0  0  0  0
 36 34  2  0  0  0  0
 37 40  2  0  0  0  0
 38 37  1  0  0  0  0
 38 39  1  0  0  0  0
 39 68  1  0  0  0  0
 39 66  1  0  0  0  0
 42  8  1  0  0  0  0
 44  9  1  0  0  0  0
 46 13  1  0  0  0  0
 48 14  1  0  0  0  0
 49 19  1  0  0  0  0
 50 20  1  0  0  0  0
 51 21  1  0  0  0  0
 54 26  1  0  0  0  0
 55 26  1  0  0  0  0
 58 28  1  0  0  0  0
 59 30  1  0  0  0  0
 61 33  1  0  0  0  0
 62 35  1  0  0  0  0
 64 35  1  0  0  0  0
 65 38  1  0  0  0  0
 67 39  1  0  0  0  0
M  END
