93
-1 1
C        18.784973    8.620427   -5.208967
O        17.719203    7.755106   -4.973022
C        18.101692    6.528874   -4.428502
C        16.849957    5.703485   -4.213302
O        17.254505    4.477806   -3.662168
C        16.315538    3.560063   -3.351036
C        14.962050    3.721628   -3.551871
C        16.811181    2.353716   -2.763404
O        18.143297    2.211447   -2.526696
C        18.936985    1.948817   -3.659976
C        15.933826    1.361533   -2.401523
C        14.539534    1.510815   -2.599081
C        14.048263    2.701993   -3.179760
N        12.716708    2.909171   -3.393248
C        11.925340    1.934656   -3.026455
N        12.259096    0.754882   -2.476257
C        13.543063    0.519154   -2.258373
N        13.934478   -0.653661   -1.716504
C        13.201822   -1.766344   -1.312479
C        11.873906   -1.996350   -1.394083
C        11.243945   -3.288958   -0.971792
O         9.995744   -3.385048   -1.074255
C        12.117022   -4.318870   -0.521080
C        13.452336   -3.998861   -0.165466
S        13.677418   -3.079629    1.829632
C        12.103101   -2.212727    1.937562
C        11.002102   -2.873369    2.788966
H        11.232266   -3.943079    2.909279
N         9.727001   -2.743540    2.127525
C         8.669627   -3.497248    2.535813
C         7.463095   -3.424447    1.621684
O         8.696406   -4.163248    3.555802
C        10.987827   -2.248463    4.187693
N        11.944069   -2.777258    5.003892
C        12.204781   -2.270060    6.323529
O        10.256110   -1.336894    4.513010
C        14.117553   -2.838065   -0.812574
O        15.323339   -2.732131   -0.977429
N        11.635704   -5.644290   -0.291849
C        11.060737   -6.214463   -1.508283
C        10.384010   -7.559141   -1.283366
C         9.386281   -7.490352   -0.124302
C        10.185028   -7.111672    1.126636
C        10.875576   -5.765196    0.948070
C         8.244009   -6.481274   -0.364320
C         7.507106   -6.656380   -1.667830
C         7.589239   -5.669327   -2.658695
C         6.929347   -5.826583   -3.877422
C         6.175505   -6.972684   -4.127541
C         6.083934   -7.961240   -3.147089
C         6.744279   -7.801382   -1.930170
H        18.379821    9.549311   -5.632607
H        19.513330    8.193911   -5.927052
H        19.331965    8.866914   -4.277465
H        18.626500    6.658480   -3.460625
H        18.792876    5.983903   -5.103572
H        16.326756    5.556721   -5.175018
H        16.163231    6.237500   -3.533215
H        14.537110    4.623747   -3.989751
H        19.969811    1.827040   -3.308119
H        18.900232    2.778693   -4.384775
H        18.618730    1.017601   -4.161450
H        16.365520    0.467695   -1.946363
H        10.850141    2.085088   -3.184764
H        14.928871   -0.836022   -1.591756
H        11.200886   -1.238890   -1.791643
H        14.123372   -4.843317    0.009087
H        11.728061   -2.139109    0.906794
H        12.283780   -1.178043    2.264016
H         9.735178   -2.460522    1.151771
H         7.764997   -3.396208    0.563900
H         6.893303   -2.509597    1.845593
H         6.822532   -4.294282    1.808792
H        12.537949   -3.504800    4.624677
H        13.221984   -1.853340    6.409206
H        12.079650   -3.051299    7.091160
H        11.478123   -1.470004    6.516042
H        11.879480   -6.332883   -2.238099
H        10.329223   -5.526613   -1.970220
H        11.139443   -8.328283   -1.046535
H         9.886759   -7.867867   -2.216996
H         8.942276   -8.491694    0.019466
H        10.934516   -7.898029    1.319969
H         9.535427   -7.047795    2.014800
H        11.577119   -5.608470    1.782671
H        10.117749   -4.967987    1.021006
H         8.649464   -5.459720   -0.343806
H         7.535090   -6.559622    0.477733
H         8.186095   -4.772799   -2.460787
H         7.007389   -5.045556   -4.637872
H         5.659236   -7.095757   -5.082953
H         5.492508   -8.862033   -3.331501
H         6.666944   -8.579643   -1.165036
