-1 1
 OpenBabel05232414493D

 93 97  0  0  1  0  0  0  0  0999 V2000
   18.7850    8.6204   -5.2090 C   0  0  0  0  0  0  0  0  0  0  0  0
   17.7192    7.7551   -4.9730 O   0  0  0  0  0  0  0  0  0  0  0  0
   18.1017    6.5289   -4.4285 C   0  0  0  0  0  0  0  0  0  0  0  0
   16.8500    5.7035   -4.2133 C   0  0  0  0  0  0  0  0  0  0  0  0
   17.2545    4.4778   -3.6622 O   0  0  0  0  0  0  0  0  0  0  0  0
   16.3155    3.5601   -3.3510 C   0  0  0  0  0  0  0  0  0  0  0  0
   14.9620    3.7216   -3.5519 C   0  0  0  0  0  0  0  0  0  0  0  0
   16.8112    2.3537   -2.7634 C   0  0  0  0  0  0  0  0  0  0  0  0
   18.1433    2.2114   -2.5267 O   0  0  0  0  0  0  0  0  0  0  0  0
   18.9370    1.9488   -3.6600 C   0  0  0  0  0  0  0  0  0  0  0  0
   15.9338    1.3615   -2.4015 C   0  0  0  0  0  0  0  0  0  0  0  0
   14.5395    1.5108   -2.5991 C   0  0  0  0  0  0  0  0  0  0  0  0
   14.0483    2.7020   -3.1798 C   0  0  0  0  0  0  0  0  0  0  0  0
   12.7167    2.9092   -3.3932 N   0  0  0  0  0  0  0  0  0  0  0  0
   11.9253    1.9347   -3.0265 C   0  0  0  0  0  0  0  0  0  0  0  0
   12.2591    0.7549   -2.4763 N   0  0  0  0  0  0  0  0  0  0  0  0
   13.5431    0.5192   -2.2584 C   0  0  0  0  0  0  0  0  0  0  0  0
   13.9345   -0.6537   -1.7165 N   0  0  0  0  0  0  0  0  0  0  0  0
   13.2018   -1.7663   -1.3125 C   0  0  0  0  0  0  0  0  0  0  0  0
   11.8739   -1.9964   -1.3941 C   0  0  0  0  0  0  0  0  0  0  0  0
   11.2439   -3.2890   -0.9718 C   0  0  0  0  0  0  0  0  0  0  0  0
    9.9957   -3.3850   -1.0743 O   0  0  0  0  0  0  0  0  0  0  0  0
   12.1170   -4.3189   -0.5211 C   0  0  1  0  0  3  0  0  0  0  0  0
   13.4523   -3.9989   -0.1655 C   0  0  2  0  0  0  0  0  0  0  0  0
   13.6774   -3.0796    1.8296 S   0  0  0  0  0  0  0  0  0  0  0  0
   12.1031   -2.2127    1.9376 C   0  0  0  0  0  0  0  0  0  0  0  0
   11.0021   -2.8734    2.7890 C   0  0  2  0  0  0  0  0  0  0  0  0
   11.2323   -3.9431    2.9093 H   0  0  0  0  0  0  0  0  0  0  0  0
    9.7270   -2.7435    2.1275 N   0  0  0  0  0  0  0  0  0  0  0  0
    8.6696   -3.4972    2.5358 C   0  0  0  0  0  0  0  0  0  0  0  0
    7.4631   -3.4244    1.6217 C   0  0  0  0  0  0  0  0  0  0  0  0
    8.6964   -4.1632    3.5558 O   0  0  0  0  0  0  0  0  0  0  0  0
   10.9878   -2.2485    4.1877 C   0  0  0  0  0  0  0  0  0  0  0  0
   11.9441   -2.7773    5.0039 N   0  0  0  0  0  0  0  0  0  0  0  0
   12.2048   -2.2701    6.3235 C   0  0  0  0  0  0  0  0  0  0  0  0
   10.2561   -1.3369    4.5130 O   0  0  0  0  0  0  0  0  0  0  0  0
   14.1176   -2.8381   -0.8126 C   0  0  0  0  0  0  0  0  0  0  0  0
   15.3233   -2.7321   -0.9774 O   0  0  0  0  0  0  0  0  0  0  0  0
   11.6357   -5.6443   -0.2918 N   0  0  2  0  0  0  0  0  0  0  0  0
   11.0607   -6.2145   -1.5083 C   0  0  0  0  0  0  0  0  0  0  0  0
   10.3840   -7.5591   -1.2834 C   0  0  0  0  0  0  0  0  0  0  0  0
    9.3863   -7.4904   -0.1243 C   0  0  1  0  0  0  0  0  0  0  0  0
   10.1850   -7.1117    1.1266 C   0  0  0  0  0  0  0  0  0  0  0  0
   10.8756   -5.7652    0.9481 C   0  0  0  0  0  0  0  0  0  0  0  0
    8.2440   -6.4813   -0.3643 C   0  0  0  0  0  0  0  0  0  0  0  0
    7.5071   -6.6564   -1.6678 C   0  0  0  0  0  0  0  0  0  0  0  0
    7.5892   -5.6693   -2.6587 C   0  0  0  0  0  0  0  0  0  0  0  0
    6.9293   -5.8266   -3.8774 C   0  0  0  0  0  0  0  0  0  0  0  0
    6.1755   -6.9727   -4.1275 C   0  0  0  0  0  0  0  0  0  0  0  0
    6.0839   -7.9612   -3.1471 C   0  0  0  0  0  0  0  0  0  0  0  0
    6.7443   -7.8014   -1.9302 C   0  0  0  0  0  0  0  0  0  0  0  0
   18.3798    9.5493   -5.6326 H   0  0  0  0  0  0  0  0  0  0  0  0
   19.5133    8.1939   -5.9271 H   0  0  0  0  0  0  0  0  0  0  0  0
   19.3320    8.8669   -4.2775 H   0  0  0  0  0  0  0  0  0  0  0  0
   18.6265    6.6585   -3.4606 H   0  0  0  0  0  0  0  0  0  0  0  0
   18.7929    5.9839   -5.1036 H   0  0  0  0  0  0  0  0  0  0  0  0
   16.3268    5.5567   -5.1750 H   0  0  0  0  0  0  0  0  0  0  0  0
   16.1632    6.2375   -3.5332 H   0  0  0  0  0  0  0  0  0  0  0  0
   14.5371    4.6237   -3.9898 H   0  0  0  0  0  0  0  0  0  0  0  0
   19.9698    1.8270   -3.3081 H   0  0  0  0  0  0  0  0  0  0  0  0
   18.9002    2.7787   -4.3848 H   0  0  0  0  0  0  0  0  0  0  0  0
   18.6187    1.0176   -4.1615 H   0  0  0  0  0  0  0  0  0  0  0  0
   16.3655    0.4677   -1.9464 H   0  0  0  0  0  0  0  0  0  0  0  0
   10.8501    2.0851   -3.1848 H   0  0  0  0  0  0  0  0  0  0  0  0
   14.9289   -0.8360   -1.5918 H   0  0  0  0  0  0  0  0  0  0  0  0
   11.2009   -1.2389   -1.7916 H   0  0  0  0  0  0  0  0  0  0  0  0
   14.1234   -4.8433    0.0091 H   0  0  0  0  0  0  0  0  0  0  0  0
   11.7281   -2.1391    0.9068 H   0  0  0  0  0  0  0  0  0  0  0  0
   12.2838   -1.1780    2.2640 H   0  0  0  0  0  0  0  0  0  0  0  0
    9.7352   -2.4605    1.1518 H   0  0  0  0  0  0  0  0  0  0  0  0
    7.7650   -3.3962    0.5639 H   0  0  0  0  0  0  0  0  0  0  0  0
    6.8933   -2.5096    1.8456 H   0  0  0  0  0  0  0  0  0  0  0  0
    6.8225   -4.2943    1.8088 H   0  0  0  0  0  0  0  0  0  0  0  0
   12.5379   -3.5048    4.6247 H   0  0  0  0  0  0  0  0  0  0  0  0
   13.2220   -1.8533    6.4092 H   0  0  0  0  0  0  0  0  0  0  0  0
   12.0797   -3.0513    7.0912 H   0  0  0  0  0  0  0  0  0  0  0  0
   11.4781   -1.4700    6.5160 H   0  0  0  0  0  0  0  0  0  0  0  0
   11.8795   -6.3329   -2.2381 H   0  0  0  0  0  0  0  0  0  0  0  0
   10.3292   -5.5266   -1.9702 H   0  0  0  0  0  0  0  0  0  0  0  0
   11.1394   -8.3283   -1.0465 H   0  0  0  0  0  0  0  0  0  0  0  0
    9.8868   -7.8679   -2.2170 H   0  0  0  0  0  0  0  0  0  0  0  0
    8.9423   -8.4917    0.0195 H   0  0  0  0  0  0  0  0  0  0  0  0
   10.9345   -7.8980    1.3200 H   0  0  0  0  0  0  0  0  0  0  0  0
    9.5354   -7.0478    2.0148 H   0  0  0  0  0  0  0  0  0  0  0  0
   11.5771   -5.6085    1.7827 H   0  0  0  0  0  0  0  0  0  0  0  0
   10.1177   -4.9680    1.0210 H   0  0  0  0  0  0  0  0  0  0  0  0
    8.6495   -5.4597   -0.3438 H   0  0  0  0  0  0  0  0  0  0  0  0
    7.5351   -6.5596    0.4777 H   0  0  0  0  0  0  0  0  0  0  0  0
    8.1861   -4.7728   -2.4608 H   0  0  0  0  0  0  0  0  0  0  0  0
    7.0074   -5.0456   -4.6379 H   0  0  0  0  0  0  0  0  0  0  0  0
    5.6592   -7.0958   -5.0830 H   0  0  0  0  0  0  0  0  0  0  0  0
    5.4925   -8.8620   -3.3315 H   0  0  0  0  0  0  0  0  0  0  0  0
    6.6669   -8.5796   -1.1650 H   0  0  0  0  0  0  0  0  0  0  0  0
  1  2  1  0  0  0  0
  1 54  1  0  0  0  0
  2  3  1  0  0  0  0
  3  4  1  0  0  0  0
  3 55  1  0  0  0  0
  4  5  1  0  0  0  0
  4 58  1  0  0  0  0
  5  6  1  0  0  0  0
  6  8  1  0  0  0  0
  7  6  2  0  0  0  0
  7 13  1  0  0  0  0
  8  9  1  0  0  0  0
  8 11  2  0  0  0  0
 10 60  1  0  0  0  0
 10  9  1  0  0  0  0
 11 63  1  0  0  0  0
 12 11  1  0  0  0  0
 12 17  1  0  0  0  0
 13 12  2  0  0  0  0
 14 13  1  0  0  0  0
 14 15  2  0  0  0  0
 15 16  1  0  0  0  0
 16 17  2  0  0  0  0
 17 18  1  0  0  0  0
 18 65  1  0  0  0  0
 18 19  1  0  0  0  0
 19 37  1  0  0  0  0
 20 19  2  0  0  0  0
 20 21  1  0  0  0  0
 22 21  2  0  0  0  0
 23 21  1  1  0  0  0
 23 39  1  0  0  0  0
 23 24  1  0  0  0  0
 24 67  1  6  0  0  0
 24 25  1  0  0  0  0
 25 26  1  0  0  0  0
 26 69  1  0  0  0  0
 26 27  1  0  0  0  0
 27 28  1  1  0  0  0
 27 33  1  0  0  0  0
 29 30  1  0  0  0  0
 29 27  1  0  0  0  0
 30 32  2  0  0  0  0
 31 73  1  0  0  0  0
 31 72  1  0  0  0  0
 31 30  1  0  0  0  0
 33 36  2  0  0  0  0
 33 34  1  0  0  0  0
 34 35  1  0  0  0  0
 35 75  1  0  0  0  0
 35 77  1  0  0  0  0
 35 76  1  0  0  0  0
 37 24  1  0  0  0  0
 38 37  2  0  0  0  0
 39 40  1  6  0  0  0
 39 44  1  0  0  0  0
 40 41  1  0  0  0  0
 41 80  1  0  0  0  0
 41 42  1  0  0  0  0
 42 82  1  1  0  0  0
 42 43  1  0  0  0  0
 43 83  1  0  0  0  0
 43 84  1  0  0  0  0
 44 86  1  0  0  0  0
 44 43  1  0  0  0  0
 44 85  1  0  0  0  0
 45 87  1  0  0  0  0
 45 42  1  0  0  0  0
 45 88  1  0  0  0  0
 46 45  1  0  0  0  0
 47 89  1  0  0  0  0
 47 46  2  0  0  0  0
 48 47  1  0  0  0  0
 49 48  2  0  0  0  0
 49 50  1  0  0  0  0
 50 51  2  0  0  0  0
 51 46  1  0  0  0  0
 51 93  1  0  0  0  0
 52  1  1  0  0  0  0
 53  1  1  0  0  0  0
 56  3  1  0  0  0  0
 57  4  1  0  0  0  0
 59  7  1  0  0  0  0
 61 10  1  0  0  0  0
 62 10  1  0  0  0  0
 64 15  1  0  0  0  0
 66 20  1  0  0  0  0
 68 26  1  0  0  0  0
 70 29  1  0  0  0  0
 71 31  1  0  0  0  0
 74 34  1  0  0  0  0
 78 40  1  0  0  0  0
 79 40  1  0  0  0  0
 81 41  1  0  0  0  0
 90 48  1  0  0  0  0
 91 49  1  0  0  0  0
 92 50  1  0  0  0  0
M  END
