-1 1
 OpenBabel05232413493D

 93 96  0  0  1  0  0  0  0  0999 V2000
    6.5057   10.3325   -2.0005 C   0  0  0  0  0  0  0  0  0  0  0  0
    5.4272    9.4519   -2.0408 O   0  0  0  0  0  0  0  0  0  0  0  0
    5.7769    8.1246   -1.7904 C   0  0  0  0  0  0  0  0  0  0  0  0
    4.5135    7.2909   -1.8458 C   0  0  0  0  0  0  0  0  0  0  0  0
    4.8859    5.9617   -1.5926 O   0  0  0  0  0  0  0  0  0  0  0  0
    3.9299    5.0109   -1.5583 C   0  0  0  0  0  0  0  0  0  0  0  0
    2.5890    5.2369   -1.7794 C   0  0  0  0  0  0  0  0  0  0  0  0
    4.3921    3.6917   -1.2511 C   0  0  0  0  0  0  0  0  0  0  0  0
    5.7084    3.4835   -0.9813 O   0  0  0  0  0  0  0  0  0  0  0  0
    6.5631    3.4746   -2.1002 C   0  0  0  0  0  0  0  0  0  0  0  0
    3.4969    2.6533   -1.1841 C   0  0  0  0  0  0  0  0  0  0  0  0
    2.1161    2.8660   -1.4183 C   0  0  0  0  0  0  0  0  0  0  0  0
    1.6559    4.1706   -1.7078 C   0  0  0  0  0  0  0  0  0  0  0  0
    0.3349    4.4441   -1.9089 N   0  0  0  0  0  0  0  0  0  0  0  0
   -0.4775    3.4241   -1.8114 C   0  0  0  0  0  0  0  0  0  0  0  0
   -0.1702    2.1402   -1.5579 N   0  0  0  0  0  0  0  0  0  0  0  0
    1.1023    1.8389   -1.3686 C   0  0  0  0  0  0  0  0  0  0  0  0
    1.4735    0.5604   -1.1266 N   0  0  0  0  0  0  0  0  0  0  0  0
    0.7275   -0.5702   -0.8665 C   0  0  0  0  0  0  0  0  0  0  0  0
   -0.6208   -0.7114   -0.8790 C   0  0  0  0  0  0  0  0  0  0  0  0
   -1.2506   -2.0062   -0.6164 C   0  0  0  0  0  0  0  0  0  0  0  0
   -2.4728   -2.1275   -0.6220 O   0  0  0  0  0  0  0  0  0  0  0  0
   -0.3525   -3.1775   -0.3157 C   0  0  0  0  0  0  0  0  0  0  0  0
    0.9870   -3.0220   -0.3163 C   0  0  0  0  0  0  0  0  0  0  0  0
    1.7312   -1.1108    1.9674 S   0  0  0  0  0  1  0  0  0  0  0  0
    0.0250   -1.4361    2.4541 C   0  0  0  0  0  0  0  0  0  0  0  0
   -0.7504   -0.4334    3.3281 C   0  0  2  0  0  0  0  0  0  0  0  0
   -0.2312   -0.3402    4.2999 H   0  0  0  0  0  0  0  0  0  0  0  0
   -2.1071   -0.9042    3.5292 N   0  0  0  0  0  0  0  0  0  0  0  0
   -2.4789   -2.0873    4.0631 C   0  0  0  0  0  0  0  0  0  0  0  0
   -3.9690   -2.3753    3.9712 C   0  0  0  0  0  0  0  0  0  0  0  0
   -1.7073   -2.9044    4.5425 O   0  0  0  0  0  0  0  0  0  0  0  0
   -0.9065    0.9932    2.7627 C   0  0  0  0  0  0  0  0  0  0  0  0
    0.2125    1.5736    2.3043 N   0  0  0  0  0  0  0  0  0  0  0  0
    0.1833    2.9137    1.7773 C   0  0  0  0  0  0  0  0  0  0  0  0
   -1.9954    1.5589    2.7827 O   0  0  0  0  0  0  0  0  0  0  0  0
    1.6417   -1.7516   -0.6763 C   0  0  0  0  0  0  0  0  0  0  0  0
    2.8128   -1.6678   -1.0341 O   0  0  0  0  0  0  0  0  0  0  0  0
   -0.9440   -4.4157    0.0540 N   0  0  0  0  0  0  0  0  0  0  0  0
   -1.7641   -5.0013   -1.0064 C   0  0  0  0  0  0  0  0  0  0  0  0
   -2.4603   -6.2777   -0.5568 C   0  0  0  0  0  0  0  0  0  0  0  0
   -3.2389   -6.0654    0.7454 C   0  0  1  0  0  0  0  0  0  0  0  0
   -2.2292   -5.6277    1.8104 C   0  0  0  0  0  0  0  0  0  0  0  0
   -1.5051   -4.3516    1.4060 C   0  0  0  0  0  0  0  0  0  0  0  0
   -4.3819   -5.0368    0.6154 C   0  0  0  0  0  0  0  0  0  0  0  0
   -5.3359   -5.3032   -0.5217 C   0  0  0  0  0  0  0  0  0  0  0  0
   -5.3996   -4.4281   -1.6129 C   0  0  0  0  0  0  0  0  0  0  0  0
   -6.2580   -4.6809   -2.6828 C   0  0  0  0  0  0  0  0  0  0  0  0
   -7.0697   -5.8143   -2.6802 C   0  0  0  0  0  0  0  0  0  0  0  0
   -7.0186   -6.6921   -1.5968 C   0  0  0  0  0  0  0  0  0  0  0  0
   -6.1596   -6.4362   -0.5299 C   0  0  0  0  0  0  0  0  0  0  0  0
    6.1264   11.3424   -2.2072 H   0  0  0  0  0  0  0  0  0  0  0  0
    7.2733   10.0820   -2.7595 H   0  0  0  0  0  0  0  0  0  0  0  0
    6.9991   10.3374   -1.0084 H   0  0  0  0  0  0  0  0  0  0  0  0
    6.2496    8.0083   -0.7945 H   0  0  0  0  0  0  0  0  0  0  0  0
    6.5017    7.7482   -2.5411 H   0  0  0  0  0  0  0  0  0  0  0  0
    4.0400    7.3916   -2.8388 H   0  0  0  0  0  0  0  0  0  0  0  0
    3.7940    7.6525   -1.0903 H   0  0  0  0  0  0  0  0  0  0  0  0
    2.1885    6.2248   -2.0020 H   0  0  0  0  0  0  0  0  0  0  0  0
    7.5755    3.2665   -1.7299 H   0  0  0  0  0  0  0  0  0  0  0  0
    6.5638    4.4468   -2.6204 H   0  0  0  0  0  0  0  0  0  0  0  0
    6.2750    2.6832   -2.8147 H   0  0  0  0  0  0  0  0  0  0  0  0
    3.8974    1.6720   -0.9219 H   0  0  0  0  0  0  0  0  0  0  0  0
   -1.5460    3.6263   -1.9547 H   0  0  0  0  0  0  0  0  0  0  0  0
    2.4655    0.3233   -1.0992 H   0  0  0  0  0  0  0  0  0  0  0  0
   -1.2776    0.1323   -1.0739 H   0  0  0  0  0  0  0  0  0  0  0  0
    1.6409   -3.8643   -0.0882 H   0  0  0  0  0  0  0  0  0  0  0  0
   -0.0157   -2.3880    2.9946 H   0  0  0  0  0  0  0  0  0  0  0  0
   -0.5767   -1.5605    1.5374 H   0  0  0  0  0  0  0  0  0  0  0  0
   -2.8030   -0.2277    3.2236 H   0  0  0  0  0  0  0  0  0  0  0  0
   -4.1491   -2.9632    3.0574 H   0  0  0  0  0  0  0  0  0  0  0  0
   -4.5852   -1.4665    3.9215 H   0  0  0  0  0  0  0  0  0  0  0  0
   -4.2668   -2.9844    4.8340 H   0  0  0  0  0  0  0  0  0  0  0  0
    1.0253    0.9560    2.1491 H   0  0  0  0  0  0  0  0  0  0  0  0
   -0.6086    3.0287    1.0216 H   0  0  0  0  0  0  0  0  0  0  0  0
    1.1534    3.1375    1.3137 H   0  0  0  0  0  0  0  0  0  0  0  0
   -0.0052    3.6543    2.5719 H   0  0  0  0  0  0  0  0  0  0  0  0
   -1.0949   -5.2293   -1.8530 H   0  0  0  0  0  0  0  0  0  0  0  0
   -2.5216   -4.2930   -1.3830 H   0  0  0  0  0  0  0  0  0  0  0  0
   -1.7121   -7.0706   -0.3881 H   0  0  0  0  0  0  0  0  0  0  0  0
   -3.1257   -6.6231   -1.3640 H   0  0  0  0  0  0  0  0  0  0  0  0
   -3.6808   -7.0318    1.0464 H   0  0  0  0  0  0  0  0  0  0  0  0
   -1.4949   -6.4373    1.9570 H   0  0  0  0  0  0  0  0  0  0  0  0
   -2.7124   -5.4485    2.7844 H   0  0  0  0  0  0  0  0  0  0  0  0
   -0.6782   -4.1728    2.1063 H   0  0  0  0  0  0  0  0  0  0  0  0
   -2.1889   -3.4879    1.5194 H   0  0  0  0  0  0  0  0  0  0  0  0
   -3.9604   -4.0295    0.4817 H   0  0  0  0  0  0  0  0  0  0  0  0
   -4.9379   -5.0244    1.5689 H   0  0  0  0  0  0  0  0  0  0  0  0
   -4.7622   -3.5387   -1.6149 H   0  0  0  0  0  0  0  0  0  0  0  0
   -6.2912   -3.9850   -3.5247 H   0  0  0  0  0  0  0  0  0  0  0  0
   -7.7421   -6.0130   -3.5183 H   0  0  0  0  0  0  0  0  0  0  0  0
   -7.6540   -7.5815   -1.5826 H   0  0  0  0  0  0  0  0  0  0  0  0
   -6.1258   -7.1285    0.3166 H   0  0  0  0  0  0  0  0  0  0  0  0
  1 54  1  0  0  0  0
  2  1  1  0  0  0  0
  2  3  1  0  0  0  0
  3 55  1  0  0  0  0
  4  3  1  0  0  0  0
  4  5  1  0  0  0  0
  4 58  1  0  0  0  0
  5  6  1  0  0  0  0
  6  8  1  0  0  0  0
  7 13  1  0  0  0  0
  7  6  2  0  0  0  0
  8 11  2  0  0  0  0
  8  9  1  0  0  0  0
 10 60  1  0  0  0  0
 10  9  1  0  0  0  0
 11 63  1  0  0  0  0
 12 17  1  0  0  0  0
 12 11  1  0  0  0  0
 13 12  2  0  0  0  0
 14 15  2  0  0  0  0
 14 13  1  0  0  0  0
 15 16  1  0  0  0  0
 16 17  2  0  0  0  0
 17 18  1  0  0  0  0
 18 65  1  0  0  0  0
 18 19  1  0  0  0  0
 19 37  1  0  0  0  0
 20 19  2  0  0  0  0
 20 21  1  0  0  0  0
 21 23  1  0  0  0  0
 22 21  2  0  0  0  0
 23 39  1  0  0  0  0
 24 23  2  0  0  0  0
 24 67  1  0  0  0  0
 25 26  1  0  0  0  0
 26 68  1  0  0  0  0
 26 27  1  0  0  0  0
 27 29  1  0  0  0  0
 27 28  1  1  0  0  0
 29 30  1  0  0  0  0
 30 32  2  0  0  0  0
 31 30  1  0  0  0  0
 31 73  1  0  0  0  0
 33 36  2  0  0  0  0
 33 27  1  0  0  0  0
 34 33  1  0  0  0  0
 35 34  1  0  0  0  0
 35 77  1  0  0  0  0
 37 24  1  0  0  0  0
 38 37  2  0  0  0  0
 39 44  1  0  0  0  0
 40 41  1  0  0  0  0
 40 39  1  0  0  0  0
 41 80  1  0  0  0  0
 41 42  1  0  0  0  0
 42 82  1  1  0  0  0
 42 43  1  0  0  0  0
 43 83  1  0  0  0  0
 43 84  1  0  0  0  0
 44 86  1  0  0  0  0
 44 43  1  0  0  0  0
 44 85  1  0  0  0  0
 45 42  1  0  0  0  0
 45 88  1  0  0  0  0
 46 45  1  0  0  0  0
 47 46  2  0  0  0  0
 48 49  2  0  0  0  0
 48 47  1  0  0  0  0
 49 50  1  0  0  0  0
 50 92  1  0  0  0  0
 50 51  2  0  0  0  0
 51 46  1  0  0  0  0
 51 93  1  0  0  0  0
 52  1  1  0  0  0  0
 53  1  1  0  0  0  0
 56  3  1  0  0  0  0
 57  4  1  0  0  0  0
 59  7  1  0  0  0  0
 61 10  1  0  0  0  0
 62 10  1  0  0  0  0
 64 15  1  0  0  0  0
 66 20  1  0  0  0  0
 69 26  1  0  0  0  0
 70 29  1  0  0  0  0
 71 31  1  0  0  0  0
 72 31  1  0  0  0  0
 74 34  1  0  0  0  0
 75 35  1  0  0  0  0
 76 35  1  0  0  0  0
 78 40  1  0  0  0  0
 79 40  1  0  0  0  0
 81 41  1  0  0  0  0
 87 45  1  0  0  0  0
 89 47  1  0  0  0  0
 90 48  1  0  0  0  0
 91 49  1  0  0  0  0
M  END
