-1 1
 OpenBabel05192410563D

 89 92  0  0  1  0  0  0  0  0999 V2000
   -1.6350    2.2003    0.7696 O   0  0  0  0  0  0  0  0  0  0  0  0
   -2.2973    2.9546   -0.0204 C   0  0  0  0  0  0  0  0  0  0  0  0
   -2.7751    2.3216   -1.2091 N   0  0  0  0  0  0  0  0  0  0  0  0
   -3.3019    3.0655   -2.3252 C   0  0  0  0  0  0  0  0  0  0  0  0
   -2.1940    3.4166   -3.3219 C   0  0  0  0  0  0  0  0  0  0  0  0
   -1.5136    2.1337   -3.8068 C   0  0  0  0  0  0  0  0  0  0  0  0
   -1.0618    1.2570   -2.6355 C   0  0  1  0  0  0  0  0  0  0  0  0
   -2.1880    1.0704   -1.6133 C   0  0  0  0  0  0  0  0  0  0  0  0
   -0.6888   -0.0369   -3.0691 O   0  0  0  0  0  0  0  0  0  0  0  0
    0.5749   -0.1706   -3.6415 C   0  0  0  0  0  0  0  0  0  0  0  0
    0.8137   -1.6545   -3.9254 C   0  0  0  0  0  0  0  0  0  0  0  0
    0.3757   -2.4838   -2.8055 N   0  0  0  0  0  0  0  0  0  0  0  0
    1.1160   -2.3621   -1.6183 C   0  0  0  0  0  0  0  0  0  0  0  0
    2.1839   -1.7827   -1.6391 O   0  0  0  0  0  0  0  0  0  0  0  0
    0.5087   -2.9243   -0.3976 C   0  0  0  0  0  0  0  0  0  0  0  0
    1.1210   -2.5479    0.9021 C   0  0  0  0  0  0  0  0  0  0  0  0
    2.3930   -2.9950    1.2675 C   0  0  0  0  0  0  0  0  0  0  0  0
    3.2408   -4.1414    0.2709 Cl  0  0  0  0  0  0  0  0  0  0  0  0
    3.0087   -2.5617    2.4536 C   0  0  0  0  0  0  0  0  0  0  0  0
    4.2447   -3.0277    2.7121 O   0  0  0  0  0  0  0  0  0  0  0  0
    4.9253   -2.5478    3.8383 C   0  0  0  0  0  0  0  0  0  0  0  0
    2.3101   -1.6966    3.2935 C   0  0  0  0  0  0  0  0  0  0  0  0
    1.0194   -1.2640    2.9796 C   0  0  0  0  0  0  0  0  0  0  0  0
    0.3655   -0.5045    3.8801 O   0  0  0  0  0  0  0  0  0  0  0  0
    0.2601    0.8969    3.6198 C   0  0  0  0  0  0  0  0  0  0  0  0
    0.4336   -1.6877    1.7802 C   0  0  0  0  0  0  0  0  0  0  0  0
   -1.1536   -1.0949    1.3974 Cl  0  0  0  0  0  0  0  0  0  0  0  0
   -0.6348   -3.6419   -0.4763 C   0  0  0  0  0  0  0  0  0  0  0  0
   -0.7950   -3.1929   -2.8889 C   0  0  0  0  0  0  0  0  0  0  0  0
   -1.3012   -3.8277   -1.7276 C   0  0  0  0  0  0  0  0  0  0  0  0
   -2.4911   -4.5388   -1.9026 C   0  0  0  0  0  0  0  0  0  0  0  0
   -3.1247   -4.6359   -3.0566 N   0  0  0  0  0  0  0  0  0  0  0  0
   -2.5509   -3.9936   -4.0927 C   0  0  0  0  0  0  0  0  0  0  0  0
   -3.1721   -4.0764   -5.2956 N   0  0  0  0  0  0  0  0  0  0  0  0
   -4.4709   -4.6682   -5.4837 C   0  0  0  0  0  0  0  0  0  0  0  0
   -1.4193   -3.2865   -4.0570 N   0  0  0  0  0  0  0  0  0  0  0  0
   -2.5920    4.2904    0.2176 C   0  0  0  0  0  3  0  0  0  0  0  0
   -2.2671    4.9430    1.5028 C   0  0  0  0  0  0  0  0  0  0  0  0
   -0.7875    6.1083    1.4984 S   0  0  0  0  0  0  0  0  0  0  0  0
    0.4566    4.9442    0.9036 C   0  0  0  0  0  0  0  0  0  0  0  0
    0.8368    3.8608    1.9241 C   0  0  2  0  0  0  0  0  0  0  0  0
   -0.0901    3.3818    2.2671 H   0  0  0  0  0  0  0  0  0  0  0  0
    1.5376    4.3820    3.0684 N   0  0  0  0  0  0  0  0  0  0  0  0
    1.0275    4.3834    4.3243 C   0  0  0  0  0  0  0  0  0  0  0  0
    1.9576    4.9517    5.3837 C   0  0  0  0  0  0  0  0  0  0  0  0
   -0.0943    4.0025    4.6086 O   0  0  0  0  0  0  0  0  0  0  0  0
    1.7196    2.8024    1.2554 C   0  0  0  0  0  0  0  0  0  0  0  0
    1.0424    1.9310    0.4974 N   0  0  0  0  0  0  0  0  0  0  0  0
    1.7054    0.8403   -0.1615 C   0  0  0  0  0  0  0  0  0  0  0  0
    2.9380    2.7955    1.4147 O   0  0  0  0  0  0  0  0  0  0  0  0
   -3.8267    3.9603   -1.9735 H   0  0  0  0  0  0  0  0  0  0  0  0
   -4.0593    2.4401   -2.8395 H   0  0  0  0  0  0  0  0  0  0  0  0
   -1.4676    4.0686   -2.8082 H   0  0  0  0  0  0  0  0  0  0  0  0
   -2.5947    3.9824   -4.1798 H   0  0  0  0  0  0  0  0  0  0  0  0
   -0.6629    2.3674   -4.4688 H   0  0  0  0  0  0  0  0  0  0  0  0
   -2.2303    1.5370   -4.4007 H   0  0  0  0  0  0  0  0  0  0  0  0
   -0.2073    1.7428   -2.1229 H   0  0  0  0  0  0  0  0  0  0  0  0
   -1.7995    0.5562   -0.7278 H   0  0  0  0  0  0  0  0  0  0  0  0
   -2.9564    0.4246   -2.0816 H   0  0  0  0  0  0  0  0  0  0  0  0
    1.3538    0.2170   -2.9614 H   0  0  0  0  0  0  0  0  0  0  0  0
    0.6641    0.3779   -4.6006 H   0  0  0  0  0  0  0  0  0  0  0  0
    1.8835   -1.8280   -4.0995 H   0  0  0  0  0  0  0  0  0  0  0  0
    0.2371   -1.9791   -4.7966 H   0  0  0  0  0  0  0  0  0  0  0  0
    5.9168   -3.0166    3.8255 H   0  0  0  0  0  0  0  0  0  0  0  0
    4.4119   -2.8231    4.7762 H   0  0  0  0  0  0  0  0  0  0  0  0
    5.0450   -1.4514    3.8046 H   0  0  0  0  0  0  0  0  0  0  0  0
    2.7326   -1.3375    4.2305 H   0  0  0  0  0  0  0  0  0  0  0  0
   -0.3834    1.1075    2.7526 H   0  0  0  0  0  0  0  0  0  0  0  0
    1.2627    1.3262    3.4553 H   0  0  0  0  0  0  0  0  0  0  0  0
   -0.1822    1.3567    4.5098 H   0  0  0  0  0  0  0  0  0  0  0  0
   -1.0883   -4.0519    0.4297 H   0  0  0  0  0  0  0  0  0  0  0  0
   -2.9452   -5.0442   -1.0414 H   0  0  0  0  0  0  0  0  0  0  0  0
   -2.7804   -3.4841   -6.0146 H   0  0  0  0  0  0  0  0  0  0  0  0
   -5.2874   -4.0369   -5.0909 H   0  0  0  0  0  0  0  0  0  0  0  0
   -4.5230   -5.6348   -4.9654 H   0  0  0  0  0  0  0  0  0  0  0  0
   -4.6383   -4.8315   -6.5571 H   0  0  0  0  0  0  0  0  0  0  0  0
   -3.1114    4.9009   -0.5203 H   0  0  0  0  0  0  0  0  0  0  0  0
   -2.0739    4.2103    2.2990 H   0  0  0  0  0  0  0  0  0  0  0  0
   -3.0652    5.6166    1.8544 H   0  0  0  0  0  0  0  0  0  0  0  0
    1.3482    5.5201    0.6103 H   0  0  0  0  0  0  0  0  0  0  0  0
    0.0438    4.4624    0.0027 H   0  0  0  0  0  0  0  0  0  0  0  0
    2.5370    4.4890    2.9344 H   0  0  0  0  0  0  0  0  0  0  0  0
    1.8155    4.3911    6.3165 H   0  0  0  0  0  0  0  0  0  0  0  0
    1.6706    5.9976    5.5694 H   0  0  0  0  0  0  0  0  0  0  0  0
    3.0171    4.9270    5.0910 H   0  0  0  0  0  0  0  0  0  0  0  0
   -0.0044    1.9759    0.5225 H   0  0  0  0  0  0  0  0  0  0  0  0
    2.2953    0.2287    0.5406 H   0  0  0  0  0  0  0  0  0  0  0  0
    2.3977    1.1850   -0.9475 H   0  0  0  0  0  0  0  0  0  0  0  0
    0.9452    0.1991   -0.6220 H   0  0  0  0  0  0  0  0  0  0  0  0
  2 37  1  0  0  0  0
  2  1  2  0  0  0  0
  3  2  1  0  0  0  0
  4 51  1  0  0  0  0
  4  3  1  0  0  0  0
  5 53  1  0  0  0  0
  5  4  1  0  0  0  0
  6  5  1  0  0  0  0
  6  7  1  0  0  0  0
  7 57  1  1  0  0  0
  7  8  1  0  0  0  0
  8  3  1  0  0  0  0
  8 58  1  0  0  0  0
  9  7  1  0  0  0  0
 10  9  1  0  0  0  0
 10 60  1  0  0  0  0
 11 10  1  0  0  0  0
 11 12  1  0  0  0  0
 12 13  1  0  0  0  0
 13 15  1  0  0  0  0
 14 13  2  0  0  0  0
 15 16  1  0  0  0  0
 16 17  2  0  0  0  0
 16 26  1  0  0  0  0
 17 19  1  0  0  0  0
 18 17  1  0  0  0  0
 19 20  1  0  0  0  0
 19 22  2  0  0  0  0
 20 21  1  0  0  0  0
 21 65  1  0  0  0  0
 22 67  1  0  0  0  0
 23 22  1  0  0  0  0
 23 24  1  0  0  0  0
 25 24  1  0  0  0  0
 25 70  1  0  0  0  0
 26 23  2  0  0  0  0
 27 26  1  0  0  0  0
 28 15  2  0  0  0  0
 28 71  1  0  0  0  0
 29 12  1  0  0  0  0
 29 30  1  0  0  0  0
 30 28  1  0  0  0  0
 31 30  2  0  0  0  0
 31 72  1  0  0  0  0
 32 31  1  0  0  0  0
 33 36  1  0  0  0  0
 33 32  2  0  0  0  0
 34 33  1  0  0  0  0
 35 34  1  0  0  0  0
 35 74  1  0  0  0  0
 35 75  1  0  0  0  0
 36 29  2  0  0  0  0
 37 38  1  0  0  0  0
 38 79  1  0  0  0  0
 38 78  1  0  0  0  0
 39 38  1  0  0  0  0
 40 39  1  0  0  0  0
 40 41  1  0  0  0  0
 41 42  1  1  0  0  0
 41 43  1  0  0  0  0
 43 44  1  0  0  0  0
 44 46  2  0  0  0  0
 44 45  1  0  0  0  0
 45 84  1  0  0  0  0
 45 83  1  0  0  0  0
 47 50  2  0  0  0  0
 47 41  1  0  0  0  0
 48 86  1  0  0  0  0
 48 47  1  0  0  0  0
 49 48  1  0  0  0  0
 49 87  1  0  0  0  0
 52  4  1  0  0  0  0
 54  5  1  0  0  0  0
 55  6  1  0  0  0  0
 56  6  1  0  0  0  0
 59  8  1  0  0  0  0
 61 10  1  0  0  0  0
 62 11  1  0  0  0  0
 63 11  1  0  0  0  0
 64 21  1  0  0  0  0
 66 21  1  0  0  0  0
 68 25  1  0  0  0  0
 69 25  1  0  0  0  0
 73 34  1  0  0  0  0
 76 35  1  0  0  0  0
 77 37  1  0  0  0  0
 80 40  1  0  0  0  0
 81 40  1  0  0  0  0
 82 43  1  0  0  0  0
 85 45  1  0  0  0  0
 88 49  1  0  0  0  0
 89 49  1  0  0  0  0
M  END
