89
-1 1
O         6.730848  -10.020680    3.794539
C         6.047765   -9.335444    3.009010
N         5.970061   -9.735015    1.670261
C         5.606833   -8.860744    0.574672
C         6.829071   -8.527098   -0.282726
C         7.501165   -9.802464   -0.784023
C         7.814481  -10.745293    0.376738
C         6.580001  -10.973786    1.249980
O         8.212465  -12.017637   -0.080902
C         9.532755  -12.156834   -0.510940
C         9.786042  -13.645045   -0.749703
N         9.239482  -14.438303    0.347027
C         9.923794  -14.358987    1.569467
O        11.011454  -13.817270    1.617786
C         9.244364  -14.924930    2.746638
C         9.905673  -14.721208    4.059628
C        11.045138  -15.450693    4.407300
Cl        11.666206  -16.666122    3.326504
C        11.707589  -15.239806    5.626993
O        12.799960  -15.987344    5.874093
C        13.515777  -15.766662    7.057233
C        11.199149  -14.284295    6.505022
C        10.053165  -13.549255    6.191866
O         9.577402  -12.675925    7.098124
C         9.924819  -11.303822    6.890444
C         9.407947  -13.772527    4.968576
Cl         7.992986  -12.832056    4.601354
C         8.035608  -15.516610    2.624775
C         8.010524  -15.035355    0.212533
C         7.391604  -15.608198    1.350747
C         6.142192  -16.191256    1.124581
N         5.552696  -16.227177   -0.055974
C         6.238833  -15.660547   -1.067760
N         5.666805  -15.689537   -2.296811
C         4.325803  -16.153760   -2.540071
N         7.436064  -15.076641   -0.983125
C         5.301479   -8.169697    3.406223
C         5.535793   -7.519846    4.604017
S         7.153170   -5.740232    4.323708
C         8.347028   -6.889254    3.592041
C         9.068106   -7.764243    4.632909
H         8.320626   -8.416203    5.115353
N         9.687617   -6.904803    5.610274
C        10.364361   -7.362451    6.680419
C        10.890045   -6.287155    7.616794
O        10.589665   -8.545200    6.888968
C        10.104584   -8.666677    3.950614
N         9.594418   -9.861227    3.560191
C        10.431567  -10.876184    2.979899
O        11.257255   -8.329499    3.748102
H         5.167621   -7.937050    0.960244
H         4.840327   -9.356664   -0.053775
H         7.533869   -7.943123    0.332708
H         6.532586   -7.888081   -1.130188
H         8.417665   -9.565642   -1.348595
H         6.823996  -10.339737   -1.472712
H         8.605453  -10.297266    1.008660
H         6.859572  -11.552628    2.137613
H         5.857872  -11.568819    0.656865
H        10.233367  -11.770219    0.249698
H         9.727503  -11.612994   -1.456387
H        10.865012  -13.831633   -0.816252
H         9.287455  -13.981352   -1.663604
H        14.368752  -16.455885    7.038231
H        12.904403  -15.978196    7.951894
H        13.892263  -14.731123    7.119345
H        11.666911  -14.077992    7.466503
H         9.564280  -10.931297    5.921580
H        11.014956  -11.164029    6.947778
H         9.450917  -10.726902    7.689281
H         7.525787  -15.911339    3.507566
H         5.601058  -16.642942    1.965120
H         6.151933  -15.154258   -3.003147
H         3.559903  -15.468198   -2.137247
H         4.169991  -17.134138   -2.069728
H         4.174279  -16.253018   -3.623340
H         4.591684   -7.718995    2.713417
H         6.125745   -8.024440    5.370950
H         4.809004   -6.796942    4.974600
H         9.101170   -6.332757    3.012398
H         7.817740   -7.552134    2.885784
H         9.321251   -5.955109    5.610470
H        10.813282   -6.650689    8.649786
H        10.358975   -5.329921    7.518175
H        11.954869   -6.121961    7.393467
H         8.597942  -10.053162    3.717891
H        11.075109  -11.366785    3.730936
H        11.094527  -10.449581    2.211452
H         9.801974  -11.650588    2.525833
