89
-1 1
O        -1.634967    2.200280    0.769565
C        -2.297331    2.954553   -0.020364
N        -2.775135    2.321556   -1.209107
C        -3.301927    3.065500   -2.325229
C        -2.193978    3.416563   -3.321867
C        -1.513632    2.133714   -3.806826
C        -1.061769    1.256985   -2.635485
C        -2.187982    1.070357   -1.613251
O        -0.688840   -0.036914   -3.069126
C         0.574851   -0.170589   -3.641534
C         0.813695   -1.654461   -3.925448
N         0.375680   -2.483829   -2.805490
C         1.115966   -2.362122   -1.618251
O         2.183916   -1.782685   -1.639087
C         0.508676   -2.924329   -0.397562
C         1.120971   -2.547919    0.902085
C         2.392997   -2.994986    1.267461
Cl         3.240780   -4.141440    0.270889
C         3.008653   -2.561651    2.453561
O         4.244728   -3.027693    2.712132
C         4.925316   -2.547841    3.838297
C         2.310149   -1.696583    3.293520
C         1.019365   -1.263981    2.979636
O         0.365540   -0.504498    3.880082
C         0.260119    0.896923    3.619791
C         0.433608   -1.687680    1.780203
Cl        -1.153646   -1.094898    1.397444
C        -0.634829   -3.641922   -0.476329
C        -0.794977   -3.192931   -2.888947
C        -1.301248   -3.827736   -1.727637
C        -2.491060   -4.538813   -1.902641
N        -3.124707   -4.635900   -3.056602
C        -2.550885   -3.993568   -4.092692
N        -3.172051   -4.076391   -5.295649
C        -4.470913   -4.668234   -5.483726
N        -1.419298   -3.286486   -4.057032
C        -2.591975    4.290396    0.217649
C        -2.267126    4.942961    1.502774
S        -0.787459    6.108267    1.498370
C         0.456618    4.944237    0.903585
C         0.836769    3.860781    1.924124
H        -0.090068    3.381814    2.267072
N         1.537598    4.381963    3.068421
C         1.027500    4.383352    4.324275
C         1.957604    4.951703    5.383696
O        -0.094313    4.002546    4.608608
C         1.719570    2.802431    1.255395
N         1.042360    1.930991    0.497435
C         1.705431    0.840264   -0.161546
O         2.937959    2.795491    1.414735
H        -3.826710    3.960307   -1.973535
H        -4.059268    2.440052   -2.839542
H        -1.467586    4.068641   -2.808201
H        -2.594699    3.982440   -4.179804
H        -0.662928    2.367427   -4.468845
H        -2.230311    1.536965   -4.400687
H        -0.207330    1.742826   -2.122864
H        -1.799535    0.556203   -0.727812
H        -2.956353    0.424587   -2.081640
H         1.353771    0.217013   -2.961446
H         0.664110    0.377915   -4.600574
H         1.883519   -1.827979   -4.099497
H         0.237142   -1.979062   -4.796559
H         5.916825   -3.016577    3.825520
H         4.411872   -2.823134    4.776220
H         5.045001   -1.451408    3.804563
H         2.732566   -1.337529    4.230539
H        -0.383382    1.107530    2.752631
H         1.262670    1.326187    3.455328
H        -0.182179    1.356731    4.509790
H        -1.088317   -4.051949    0.429741
H        -2.945203   -5.044243   -1.041431
H        -2.780382   -3.484091   -6.014609
H        -5.287405   -4.036915   -5.090890
H        -4.522986   -5.634791   -4.965400
H        -4.638293   -4.831522   -6.557054
H        -3.111376    4.900865   -0.520275
H        -2.073905    4.210277    2.299005
H        -3.065241    5.616582    1.854367
H         1.348243    5.520057    0.610291
H         0.043793    4.462436    0.002727
H         2.536953    4.488995    2.934403
H         1.815501    4.391063    6.316479
H         1.670599    5.997614    5.569377
H         3.017140    4.926952    5.091040
H        -0.004425    1.975864    0.522537
H         2.295343    0.228748    0.540591
H         2.397669    1.185004   -0.947482
H         0.945176    0.199123   -0.621985
