89
-1 1
O        -2.260220    1.610803    0.903928
C        -2.798013    2.383182    0.112203
N        -2.661586    2.218100   -1.245983
C        -2.950193    3.245174   -2.234745
C        -1.712284    3.560505   -3.075482
C        -1.127509    2.297725   -3.701474
C        -0.839812    1.259417   -2.621447
C        -2.079770    1.000100   -1.770149
O        -0.485202    0.010184   -3.166625
C         0.856729   -0.184524   -3.502416
C         1.071613   -1.680517   -3.717083
N         0.503165   -2.448036   -2.612208
C         1.202565   -2.399812   -1.395212
O         2.303733   -1.886338   -1.354669
C         0.518397   -2.958896   -0.215244
C         1.188566   -2.769025    1.095830
C         2.359172   -3.464597    1.409415
Cl         2.986557   -4.660202    0.311365
C         3.047798   -3.238465    2.612137
O         4.168868   -3.952326    2.824706
C         4.912857   -3.712609    3.986932
C         2.536069   -2.301931    3.508518
C         1.355720   -1.607003    3.234630
O         0.882449   -0.746738    4.155487
C         1.183851    0.635252    3.938196
C         0.679006   -1.853036    2.033011
Cl        -0.787346   -0.971101    1.724968
C        -0.703307   -3.525043   -0.335450
C        -0.736676   -3.023061   -2.743689
C        -1.358028   -3.592811   -1.605188
C        -2.620165   -4.150623   -1.826840
N        -3.217790   -4.167150   -3.003404
C        -2.526841   -3.608369   -4.016830
N        -3.106332   -3.620556   -5.241889
C        -4.453042   -4.069585   -5.482629
N        -1.318500   -3.046906   -3.936016
C        -3.638686    3.514371    0.571621
C        -3.433867    4.095244    1.758091
S        -1.356813    6.476907    0.946337
C        -0.436250    5.021705    0.352453
C         0.228775    4.185421    1.472621
H        -0.550488    3.598951    1.991176
N         0.866521    5.073966    2.403785
C         1.479846    4.645558    3.518516
C         2.021898    5.741912    4.419150
O         1.637211    3.462804    3.798067
C         1.237408    3.207068    0.865811
N         0.713964    1.982425    0.578594
C         1.543036    0.925058    0.066509
O         2.386500    3.507538    0.601857
H        -3.276010    4.160153   -1.729084
H        -3.772815    2.903559   -2.893646
H        -0.963129    4.042748   -2.427420
H        -1.981484    4.292559   -3.852319
H        -0.209302    2.531390   -4.263570
H        -1.844633    1.853485   -4.415229
H        -0.039001    1.638208   -1.959569
H        -1.823591    0.341870   -0.931658
H        -2.820002    0.479053   -2.407933
H         1.517632    0.177138   -2.695982
H         1.137387    0.348256   -4.432434
H         2.146182   -1.893351   -3.775552
H         0.569485   -2.015537   -4.629732
H         5.785766   -4.374877    3.939711
H         4.335315   -3.945635    4.898501
H         5.258632   -2.666045    4.041110
H         3.027418   -2.081532    4.454970
H         0.768230    1.003977    2.990796
H         2.271690    0.803825    3.941822
H         0.733889    1.198242    4.760578
H        -1.215690   -3.917347    0.546844
H        -3.164009   -4.597955   -0.985718
H        -2.612988   -3.096585   -5.951019
H        -5.209778   -3.378880   -5.071630
H        -4.617306   -5.051695   -5.018716
H        -4.610128   -4.159153   -6.565864
H        -4.400886    3.913438   -0.099872
H        -2.659605    3.732949    2.436645
H        -4.029022    4.947435    2.084762
H         0.356495    5.332710   -0.349113
H        -1.099797    4.336181   -0.199364
H         0.531004    6.039314    2.311080
H         1.847810    5.458269    5.465665
H         1.572349    6.724098    4.217647
H         3.109166    5.813625    4.265111
H        -0.244000    1.767063    0.854709
H         2.120531    0.414973    0.857427
H         2.266172    1.330405   -0.655308
H         0.916798    0.172243   -0.427785
