-1 1
 OpenBabel05232413493D

 89 91  0  0  1  0  0  0  0  0999 V2000
   -2.2602    1.6108    0.9039 O   0  0  0  0  0  0  0  0  0  0  0  0
   -2.7980    2.3832    0.1122 C   0  0  0  0  0  0  0  0  0  0  0  0
   -2.6616    2.2181   -1.2460 N   0  0  0  0  0  0  0  0  0  0  0  0
   -2.9502    3.2452   -2.2347 C   0  0  0  0  0  0  0  0  0  0  0  0
   -1.7123    3.5605   -3.0755 C   0  0  0  0  0  0  0  0  0  0  0  0
   -1.1275    2.2977   -3.7015 C   0  0  0  0  0  0  0  0  0  0  0  0
   -0.8398    1.2594   -2.6214 C   0  0  1  0  0  0  0  0  0  0  0  0
   -2.0798    1.0001   -1.7701 C   0  0  0  0  0  0  0  0  0  0  0  0
   -0.4852    0.0102   -3.1666 O   0  0  0  0  0  0  0  0  0  0  0  0
    0.8567   -0.1845   -3.5024 C   0  0  0  0  0  0  0  0  0  0  0  0
    1.0716   -1.6805   -3.7171 C   0  0  0  0  0  0  0  0  0  0  0  0
    0.5032   -2.4480   -2.6122 N   0  0  0  0  0  0  0  0  0  0  0  0
    1.2026   -2.3998   -1.3952 C   0  0  0  0  0  0  0  0  0  0  0  0
    2.3037   -1.8863   -1.3547 O   0  0  0  0  0  0  0  0  0  0  0  0
    0.5184   -2.9589   -0.2152 C   0  0  0  0  0  0  0  0  0  0  0  0
    1.1886   -2.7690    1.0958 C   0  0  0  0  0  0  0  0  0  0  0  0
    2.3592   -3.4646    1.4094 C   0  0  0  0  0  0  0  0  0  0  0  0
    2.9866   -4.6602    0.3114 Cl  0  0  0  0  0  0  0  0  0  0  0  0
    3.0478   -3.2385    2.6121 C   0  0  0  0  0  0  0  0  0  0  0  0
    4.1689   -3.9523    2.8247 O   0  0  0  0  0  0  0  0  0  0  0  0
    4.9129   -3.7126    3.9869 C   0  0  0  0  0  0  0  0  0  0  0  0
    2.5361   -2.3019    3.5085 C   0  0  0  0  0  0  0  0  0  0  0  0
    1.3557   -1.6070    3.2346 C   0  0  0  0  0  0  0  0  0  0  0  0
    0.8824   -0.7467    4.1555 O   0  0  0  0  0  0  0  0  0  0  0  0
    1.1839    0.6353    3.9382 C   0  0  0  0  0  0  0  0  0  0  0  0
    0.6790   -1.8530    2.0330 C   0  0  0  0  0  0  0  0  0  0  0  0
   -0.7873   -0.9711    1.7250 Cl  0  0  0  0  0  0  0  0  0  0  0  0
   -0.7033   -3.5250   -0.3355 C   0  0  0  0  0  0  0  0  0  0  0  0
   -0.7367   -3.0231   -2.7437 C   0  0  0  0  0  0  0  0  0  0  0  0
   -1.3580   -3.5928   -1.6052 C   0  0  0  0  0  0  0  0  0  0  0  0
   -2.6202   -4.1506   -1.8268 C   0  0  0  0  0  0  0  0  0  0  0  0
   -3.2178   -4.1672   -3.0034 N   0  0  0  0  0  0  0  0  0  0  0  0
   -2.5268   -3.6084   -4.0168 C   0  0  0  0  0  0  0  0  0  0  0  0
   -3.1063   -3.6206   -5.2419 N   0  0  0  0  0  0  0  0  0  0  0  0
   -4.4530   -4.0696   -5.4826 C   0  0  0  0  0  0  0  0  0  0  0  0
   -1.3185   -3.0469   -3.9360 N   0  0  0  0  0  0  0  0  0  0  0  0
   -3.6387    3.5144    0.5716 C   0  0  0  0  0  0  0  0  0  0  0  0
   -3.4339    4.0952    1.7581 C   0  0  0  0  0  0  0  0  0  0  0  0
   -1.3568    6.4769    0.9463 S   0  0  0  0  0  1  0  0  0  0  0  0
   -0.4363    5.0217    0.3525 C   0  0  0  0  0  0  0  0  0  0  0  0
    0.2288    4.1854    1.4726 C   0  0  2  0  0  0  0  0  0  0  0  0
   -0.5505    3.5990    1.9912 H   0  0  0  0  0  0  0  0  0  0  0  0
    0.8665    5.0740    2.4038 N   0  0  0  0  0  0  0  0  0  0  0  0
    1.4798    4.6456    3.5185 C   0  0  0  0  0  0  0  0  0  0  0  0
    2.0219    5.7419    4.4192 C   0  0  0  0  0  0  0  0  0  0  0  0
    1.6372    3.4628    3.7981 O   0  0  0  0  0  0  0  0  0  0  0  0
    1.2374    3.2071    0.8658 C   0  0  0  0  0  0  0  0  0  0  0  0
    0.7140    1.9824    0.5786 N   0  0  0  0  0  0  0  0  0  0  0  0
    1.5430    0.9251    0.0665 C   0  0  0  0  0  0  0  0  0  0  0  0
    2.3865    3.5075    0.6019 O   0  0  0  0  0  0  0  0  0  0  0  0
   -3.2760    4.1602   -1.7291 H   0  0  0  0  0  0  0  0  0  0  0  0
   -3.7728    2.9036   -2.8936 H   0  0  0  0  0  0  0  0  0  0  0  0
   -0.9631    4.0427   -2.4274 H   0  0  0  0  0  0  0  0  0  0  0  0
   -1.9815    4.2926   -3.8523 H   0  0  0  0  0  0  0  0  0  0  0  0
   -0.2093    2.5314   -4.2636 H   0  0  0  0  0  0  0  0  0  0  0  0
   -1.8446    1.8535   -4.4152 H   0  0  0  0  0  0  0  0  0  0  0  0
   -0.0390    1.6382   -1.9596 H   0  0  0  0  0  0  0  0  0  0  0  0
   -1.8236    0.3419   -0.9317 H   0  0  0  0  0  0  0  0  0  0  0  0
   -2.8200    0.4791   -2.4079 H   0  0  0  0  0  0  0  0  0  0  0  0
    1.5176    0.1771   -2.6960 H   0  0  0  0  0  0  0  0  0  0  0  0
    1.1374    0.3483   -4.4324 H   0  0  0  0  0  0  0  0  0  0  0  0
    2.1462   -1.8934   -3.7756 H   0  0  0  0  0  0  0  0  0  0  0  0
    0.5695   -2.0155   -4.6297 H   0  0  0  0  0  0  0  0  0  0  0  0
    5.7858   -4.3749    3.9397 H   0  0  0  0  0  0  0  0  0  0  0  0
    4.3353   -3.9456    4.8985 H   0  0  0  0  0  0  0  0  0  0  0  0
    5.2586   -2.6660    4.0411 H   0  0  0  0  0  0  0  0  0  0  0  0
    3.0274   -2.0815    4.4550 H   0  0  0  0  0  0  0  0  0  0  0  0
    0.7682    1.0040    2.9908 H   0  0  0  0  0  0  0  0  0  0  0  0
    2.2717    0.8038    3.9418 H   0  0  0  0  0  0  0  0  0  0  0  0
    0.7339    1.1982    4.7606 H   0  0  0  0  0  0  0  0  0  0  0  0
   -1.2157   -3.9173    0.5468 H   0  0  0  0  0  0  0  0  0  0  0  0
   -3.1640   -4.5980   -0.9857 H   0  0  0  0  0  0  0  0  0  0  0  0
   -2.6130   -3.0966   -5.9510 H   0  0  0  0  0  0  0  0  0  0  0  0
   -5.2098   -3.3789   -5.0716 H   0  0  0  0  0  0  0  0  0  0  0  0
   -4.6173   -5.0517   -5.0187 H   0  0  0  0  0  0  0  0  0  0  0  0
   -4.6101   -4.1592   -6.5659 H   0  0  0  0  0  0  0  0  0  0  0  0
   -4.4009    3.9134   -0.0999 H   0  0  0  0  0  0  0  0  0  0  0  0
   -2.6596    3.7329    2.4366 H   0  0  0  0  0  0  0  0  0  0  0  0
   -4.0290    4.9474    2.0848 H   0  0  0  0  0  0  0  0  0  0  0  0
    0.3565    5.3327   -0.3491 H   0  0  0  0  0  0  0  0  0  0  0  0
   -1.0998    4.3362   -0.1994 H   0  0  0  0  0  0  0  0  0  0  0  0
    0.5310    6.0393    2.3111 H   0  0  0  0  0  0  0  0  0  0  0  0
    1.8478    5.4583    5.4657 H   0  0  0  0  0  0  0  0  0  0  0  0
    1.5723    6.7241    4.2176 H   0  0  0  0  0  0  0  0  0  0  0  0
    3.1092    5.8136    4.2651 H   0  0  0  0  0  0  0  0  0  0  0  0
   -0.2440    1.7671    0.8547 H   0  0  0  0  0  0  0  0  0  0  0  0
    2.1205    0.4150    0.8574 H   0  0  0  0  0  0  0  0  0  0  0  0
    2.2662    1.3304   -0.6553 H   0  0  0  0  0  0  0  0  0  0  0  0
    0.9168    0.1722   -0.4278 H   0  0  0  0  0  0  0  0  0  0  0  0
  2 37  1  0  0  0  0
  2  1  2  0  0  0  0
  3  2  1  0  0  0  0
  4 51  1  0  0  0  0
  4  3  1  0  0  0  0
  5 53  1  0  0  0  0
  5  4  1  0  0  0  0
  6  5  1  0  0  0  0
  6  7  1  0  0  0  0
  7 57  1  1  0  0  0
  7  8  1  0  0  0  0
  8  3  1  0  0  0  0
  8 58  1  0  0  0  0
  9  7  1  0  0  0  0
 10  9  1  0  0  0  0
 10 60  1  0  0  0  0
 11 10  1  0  0  0  0
 11 12  1  0  0  0  0
 12 13  1  0  0  0  0
 13 14  2  0  0  0  0
 13 15  1  0  0  0  0
 15 16  1  0  0  0  0
 16 17  2  0  0  0  0
 16 26  1  0  0  0  0
 17 19  1  0  0  0  0
 18 17  1  0  0  0  0
 19 20  1  0  0  0  0
 19 22  2  0  0  0  0
 20 21  1  0  0  0  0
 21 66  1  0  0  0  0
 21 65  1  0  0  0  0
 22 67  1  0  0  0  0
 23 22  1  0  0  0  0
 23 24  1  0  0  0  0
 25 69  1  0  0  0  0
 25 24  1  0  0  0  0
 25 70  1  0  0  0  0
 26 23  2  0  0  0  0
 27 26  1  0  0  0  0
 28 15  2  0  0  0  0
 28 71  1  0  0  0  0
 29 12  1  0  0  0  0
 29 30  1  0  0  0  0
 30 28  1  0  0  0  0
 31 30  2  0  0  0  0
 31 72  1  0  0  0  0
 32 31  1  0  0  0  0
 33 36  1  0  0  0  0
 33 32  2  0  0  0  0
 34 33  1  0  0  0  0
 35 34  1  0  0  0  0
 35 74  1  0  0  0  0
 35 75  1  0  0  0  0
 36 29  2  0  0  0  0
 37 38  2  0  0  0  0
 38 79  1  0  0  0  0
 38 78  1  0  0  0  0
 40 39  1  0  0  0  0
 40 41  1  0  0  0  0
 41 42  1  1  0  0  0
 41 43  1  0  0  0  0
 43 44  1  0  0  0  0
 44 46  2  0  0  0  0
 44 45  1  0  0  0  0
 45 83  1  0  0  0  0
 47 41  1  0  0  0  0
 48 86  1  0  0  0  0
 48 47  1  0  0  0  0
 49 48  1  0  0  0  0
 49 87  1  0  0  0  0
 50 47  2  0  0  0  0
 52  4  1  0  0  0  0
 54  5  1  0  0  0  0
 55  6  1  0  0  0  0
 56  6  1  0  0  0  0
 59  8  1  0  0  0  0
 61 10  1  0  0  0  0
 62 11  1  0  0  0  0
 63 11  1  0  0  0  0
 64 21  1  0  0  0  0
 68 25  1  0  0  0  0
 73 34  1  0  0  0  0
 76 35  1  0  0  0  0
 77 37  1  0  0  0  0
 80 40  1  0  0  0  0
 81 40  1  0  0  0  0
 82 43  1  0  0  0  0
 84 45  1  0  0  0  0
 85 45  1  0  0  0  0
 88 49  1  0  0  0  0
 89 49  1  0  0  0  0
M  END
