-1 1
 OpenBabel05232414493D

 89 91  0  0  1  0  0  0  0  0999 V2000
    6.7308  -10.0207    3.7945 O   0  0  0  0  0  0  0  0  0  0  0  0
    6.0478   -9.3354    3.0090 C   0  0  0  0  0  0  0  0  0  0  0  0
    5.9701   -9.7350    1.6703 N   0  0  0  0  0  0  0  0  0  0  0  0
    5.6068   -8.8607    0.5747 C   0  0  0  0  0  0  0  0  0  0  0  0
    6.8291   -8.5271   -0.2827 C   0  0  0  0  0  0  0  0  0  0  0  0
    7.5012   -9.8025   -0.7840 C   0  0  0  0  0  0  0  0  0  0  0  0
    7.8145  -10.7453    0.3767 C   0  0  1  0  0  0  0  0  0  0  0  0
    6.5800  -10.9738    1.2500 C   0  0  0  0  0  0  0  0  0  0  0  0
    8.2125  -12.0176   -0.0809 O   0  0  0  0  0  0  0  0  0  0  0  0
    9.5328  -12.1568   -0.5109 C   0  0  0  0  0  0  0  0  0  0  0  0
    9.7860  -13.6450   -0.7497 C   0  0  0  0  0  0  0  0  0  0  0  0
    9.2395  -14.4383    0.3470 N   0  0  0  0  0  0  0  0  0  0  0  0
    9.9238  -14.3590    1.5695 C   0  0  0  0  0  0  0  0  0  0  0  0
   11.0115  -13.8173    1.6178 O   0  0  0  0  0  0  0  0  0  0  0  0
    9.2444  -14.9249    2.7466 C   0  0  0  0  0  0  0  0  0  0  0  0
    9.9057  -14.7212    4.0596 C   0  0  0  0  0  0  0  0  0  0  0  0
   11.0451  -15.4507    4.4073 C   0  0  0  0  0  0  0  0  0  0  0  0
   11.6662  -16.6661    3.3265 Cl  0  0  0  0  0  0  0  0  0  0  0  0
   11.7076  -15.2398    5.6270 C   0  0  0  0  0  0  0  0  0  0  0  0
   12.8000  -15.9873    5.8741 O   0  0  0  0  0  0  0  0  0  0  0  0
   13.5158  -15.7667    7.0572 C   0  0  0  0  0  0  0  0  0  0  0  0
   11.1991  -14.2843    6.5050 C   0  0  0  0  0  0  0  0  0  0  0  0
   10.0532  -13.5493    6.1919 C   0  0  0  0  0  0  0  0  0  0  0  0
    9.5774  -12.6759    7.0981 O   0  0  0  0  0  0  0  0  0  0  0  0
    9.9248  -11.3038    6.8904 C   0  0  0  0  0  0  0  0  0  0  0  0
    9.4079  -13.7725    4.9686 C   0  0  0  0  0  0  0  0  0  0  0  0
    7.9930  -12.8321    4.6014 Cl  0  0  0  0  0  0  0  0  0  0  0  0
    8.0356  -15.5166    2.6248 C   0  0  0  0  0  0  0  0  0  0  0  0
    8.0105  -15.0354    0.2125 C   0  0  0  0  0  0  0  0  0  0  0  0
    7.3916  -15.6082    1.3507 C   0  0  0  0  0  0  0  0  0  0  0  0
    6.1422  -16.1913    1.1246 C   0  0  0  0  0  0  0  0  0  0  0  0
    5.5527  -16.2272   -0.0560 N   0  0  0  0  0  0  0  0  0  0  0  0
    6.2388  -15.6605   -1.0678 C   0  0  0  0  0  0  0  0  0  0  0  0
    5.6668  -15.6895   -2.2968 N   0  0  0  0  0  0  0  0  0  0  0  0
    4.3258  -16.1538   -2.5401 C   0  0  0  0  0  0  0  0  0  0  0  0
    7.4361  -15.0766   -0.9831 N   0  0  0  0  0  0  0  0  0  0  0  0
    5.3015   -8.1697    3.4062 C   0  0  0  0  0  3  0  0  0  0  0  0
    5.5358   -7.5198    4.6040 C   0  0  0  0  0  3  0  0  0  0  0  0
    7.1532   -5.7402    4.3237 S   0  0  0  0  0  1  0  0  0  0  0  0
    8.3470   -6.8893    3.5920 C   0  0  0  0  0  0  0  0  0  0  0  0
    9.0681   -7.7642    4.6329 C   0  0  2  0  0  0  0  0  0  0  0  0
    8.3206   -8.4162    5.1154 H   0  0  0  0  0  0  0  0  0  0  0  0
    9.6876   -6.9048    5.6103 N   0  0  0  0  0  0  0  0  0  0  0  0
   10.3644   -7.3625    6.6804 C   0  0  0  0  0  0  0  0  0  0  0  0
   10.8900   -6.2872    7.6168 C   0  0  0  0  0  0  0  0  0  0  0  0
   10.5897   -8.5452    6.8890 O   0  0  0  0  0  0  0  0  0  0  0  0
   10.1046   -8.6667    3.9506 C   0  0  0  0  0  0  0  0  0  0  0  0
    9.5944   -9.8612    3.5602 N   0  0  0  0  0  0  0  0  0  0  0  0
   10.4316  -10.8762    2.9799 C   0  0  0  0  0  0  0  0  0  0  0  0
   11.2573   -8.3295    3.7481 O   0  0  0  0  0  0  0  0  0  0  0  0
    5.1676   -7.9371    0.9602 H   0  0  0  0  0  0  0  0  0  0  0  0
    4.8403   -9.3567   -0.0538 H   0  0  0  0  0  0  0  0  0  0  0  0
    7.5339   -7.9431    0.3327 H   0  0  0  0  0  0  0  0  0  0  0  0
    6.5326   -7.8881   -1.1302 H   0  0  0  0  0  0  0  0  0  0  0  0
    8.4177   -9.5656   -1.3486 H   0  0  0  0  0  0  0  0  0  0  0  0
    6.8240  -10.3397   -1.4727 H   0  0  0  0  0  0  0  0  0  0  0  0
    8.6055  -10.2973    1.0087 H   0  0  0  0  0  0  0  0  0  0  0  0
    6.8596  -11.5526    2.1376 H   0  0  0  0  0  0  0  0  0  0  0  0
    5.8579  -11.5688    0.6569 H   0  0  0  0  0  0  0  0  0  0  0  0
   10.2334  -11.7702    0.2497 H   0  0  0  0  0  0  0  0  0  0  0  0
    9.7275  -11.6130   -1.4564 H   0  0  0  0  0  0  0  0  0  0  0  0
   10.8650  -13.8316   -0.8163 H   0  0  0  0  0  0  0  0  0  0  0  0
    9.2875  -13.9814   -1.6636 H   0  0  0  0  0  0  0  0  0  0  0  0
   14.3688  -16.4559    7.0382 H   0  0  0  0  0  0  0  0  0  0  0  0
   12.9044  -15.9782    7.9519 H   0  0  0  0  0  0  0  0  0  0  0  0
   13.8923  -14.7311    7.1193 H   0  0  0  0  0  0  0  0  0  0  0  0
   11.6669  -14.0780    7.4665 H   0  0  0  0  0  0  0  0  0  0  0  0
    9.5643  -10.9313    5.9216 H   0  0  0  0  0  0  0  0  0  0  0  0
   11.0150  -11.1640    6.9478 H   0  0  0  0  0  0  0  0  0  0  0  0
    9.4509  -10.7269    7.6893 H   0  0  0  0  0  0  0  0  0  0  0  0
    7.5258  -15.9113    3.5076 H   0  0  0  0  0  0  0  0  0  0  0  0
    5.6011  -16.6429    1.9651 H   0  0  0  0  0  0  0  0  0  0  0  0
    6.1519  -15.1543   -3.0031 H   0  0  0  0  0  0  0  0  0  0  0  0
    3.5599  -15.4682   -2.1372 H   0  0  0  0  0  0  0  0  0  0  0  0
    4.1700  -17.1341   -2.0697 H   0  0  0  0  0  0  0  0  0  0  0  0
    4.1743  -16.2530   -3.6233 H   0  0  0  0  0  0  0  0  0  0  0  0
    4.5917   -7.7190    2.7134 H   0  0  0  0  0  0  0  0  0  0  0  0
    6.1257   -8.0244    5.3709 H   0  0  0  0  0  0  0  0  0  0  0  0
    4.8090   -6.7969    4.9746 H   0  0  0  0  0  0  0  0  0  0  0  0
    9.1012   -6.3328    3.0124 H   0  0  0  0  0  0  0  0  0  0  0  0
    7.8177   -7.5521    2.8858 H   0  0  0  0  0  0  0  0  0  0  0  0
    9.3213   -5.9551    5.6105 H   0  0  0  0  0  0  0  0  0  0  0  0
   10.8133   -6.6507    8.6498 H   0  0  0  0  0  0  0  0  0  0  0  0
   10.3590   -5.3299    7.5182 H   0  0  0  0  0  0  0  0  0  0  0  0
   11.9549   -6.1220    7.3935 H   0  0  0  0  0  0  0  0  0  0  0  0
    8.5979  -10.0532    3.7179 H   0  0  0  0  0  0  0  0  0  0  0  0
   11.0751  -11.3668    3.7309 H   0  0  0  0  0  0  0  0  0  0  0  0
   11.0945  -10.4496    2.2115 H   0  0  0  0  0  0  0  0  0  0  0  0
    9.8020  -11.6506    2.5258 H   0  0  0  0  0  0  0  0  0  0  0  0
  2 37  1  0  0  0  0
  2  1  2  0  0  0  0
  3  2  1  0  0  0  0
  4 51  1  0  0  0  0
  4  3  1  0  0  0  0
  5 53  1  0  0  0  0
  5  4  1  0  0  0  0
  6  5  1  0  0  0  0
  6  7  1  0  0  0  0
  7 57  1  1  0  0  0
  7  8  1  0  0  0  0
  8  3  1  0  0  0  0
  8 58  1  0  0  0  0
  9  7  1  0  0  0  0
 10  9  1  0  0  0  0
 10 60  1  0  0  0  0
 11 10  1  0  0  0  0
 11 12  1  0  0  0  0
 12 13  1  0  0  0  0
 13 14  2  0  0  0  0
 13 15  1  0  0  0  0
 15 16  1  0  0  0  0
 16 17  2  0  0  0  0
 16 26  1  0  0  0  0
 17 19  1  0  0  0  0
 18 17  1  0  0  0  0
 19 20  1  0  0  0  0
 19 22  2  0  0  0  0
 20 21  1  0  0  0  0
 21 66  1  0  0  0  0
 21 65  1  0  0  0  0
 22 67  1  0  0  0  0
 23 22  1  0  0  0  0
 23 24  1  0  0  0  0
 25 69  1  0  0  0  0
 25 24  1  0  0  0  0
 25 70  1  0  0  0  0
 26 23  2  0  0  0  0
 27 26  1  0  0  0  0
 28 15  2  0  0  0  0
 28 71  1  0  0  0  0
 29 12  1  0  0  0  0
 29 30  1  0  0  0  0
 30 28  1  0  0  0  0
 31 30  2  0  0  0  0
 31 72  1  0  0  0  0
 32 31  1  0  0  0  0
 33 36  1  0  0  0  0
 33 32  2  0  0  0  0
 34 33  1  0  0  0  0
 35 34  1  0  0  0  0
 35 74  1  0  0  0  0
 35 75  1  0  0  0  0
 36 29  2  0  0  0  0
 37 38  1  0  0  0  0
 38 79  1  0  0  0  0
 38 78  1  0  0  0  0
 40 39  1  0  0  0  0
 40 41  1  0  0  0  0
 41 42  1  1  0  0  0
 41 43  1  0  0  0  0
 43 82  1  0  0  0  0
 43 44  1  0  0  0  0
 44 46  2  0  0  0  0
 44 45  1  0  0  0  0
 45 83  1  0  0  0  0
 47 41  1  0  0  0  0
 48 86  1  0  0  0  0
 48 47  1  0  0  0  0
 49 48  1  0  0  0  0
 49 87  1  0  0  0  0
 50 47  2  0  0  0  0
 52  4  1  0  0  0  0
 54  5  1  0  0  0  0
 55  6  1  0  0  0  0
 56  6  1  0  0  0  0
 59  8  1  0  0  0  0
 61 10  1  0  0  0  0
 62 11  1  0  0  0  0
 63 11  1  0  0  0  0
 64 21  1  0  0  0  0
 68 25  1  0  0  0  0
 73 34  1  0  0  0  0
 76 35  1  0  0  0  0
 77 37  1  0  0  0  0
 80 40  1  0  0  0  0
 81 40  1  0  0  0  0
 84 45  1  0  0  0  0
 85 45  1  0  0  0  0
 88 49  1  0  0  0  0
 89 49  1  0  0  0  0
M  END
