-1 1
 OpenBabel05192410563D

 86 89  0  0  1  0  0  0  0  0999 V2000
    2.6935    1.6435   -1.5715 O   0  0  0  0  0  0  0  0  0  0  0  0
    3.3038    0.7196   -2.1775 C   0  0  0  0  0  0  0  0  0  0  0  0
    2.5050   -0.3125   -2.7281 N   0  0  0  0  0  0  0  0  0  0  0  0
    2.9833   -1.6847   -2.8548 C   0  0  0  0  0  0  0  0  0  0  0  0
    1.7332   -2.5564   -2.6835 C   0  0  0  0  0  0  0  0  0  0  0  0
    0.8121   -1.6667   -1.8584 C   0  0  1  0  0  0  0  0  0  0  0  0
    1.0793   -0.2939   -2.4743 C   0  0  0  0  0  0  0  0  0  0  0  0
   -0.5352   -2.0849   -1.9056 O   0  0  0  0  0  0  0  0  0  0  0  0
   -1.1737   -2.1174   -0.6664 C   0  0  0  0  0  0  0  0  0  0  0  0
   -1.4366   -0.7148   -0.1044 C   0  0  0  0  0  0  0  0  0  0  0  0
   -1.7490   -0.7583    1.3216 N   0  0  0  0  0  0  0  0  0  0  0  0
   -3.0920   -0.9301    1.6856 C   0  0  0  0  0  0  0  0  0  0  0  0
   -3.9562   -1.0485    0.8362 O   0  0  0  0  0  0  0  0  0  0  0  0
   -3.3772   -0.9539    3.1271 C   0  0  0  0  0  0  0  0  0  0  0  0
   -4.8037   -1.1191    3.5082 C   0  0  0  0  0  0  0  0  0  0  0  0
   -5.3586   -2.3947    3.6535 C   0  0  0  0  0  0  0  0  0  0  0  0
   -4.3818   -3.8088    3.3935 Cl  0  0  0  0  0  0  0  0  0  0  0  0
   -6.7083   -2.5640    3.9915 C   0  0  0  0  0  0  0  0  0  0  0  0
   -7.1589   -3.8254    4.1093 O   0  0  0  0  0  0  0  0  0  0  0  0
   -8.5073   -4.0520    4.4071 C   0  0  0  0  0  0  0  0  0  0  0  0
   -7.5099   -1.4359    4.1893 C   0  0  0  0  0  0  0  0  0  0  0  0
   -6.9765   -0.1516    4.0475 C   0  0  0  0  0  0  0  0  0  0  0  0
   -7.6923    0.9733    4.2198 O   0  0  0  0  0  0  0  0  0  0  0  0
   -9.0561    0.8851    4.5206 C   0  0  0  0  0  0  0  0  0  0  0  0
   -5.6240   -0.0045    3.7084 C   0  0  0  0  0  0  0  0  0  0  0  0
   -4.9848    1.6000    3.5140 Cl  0  0  0  0  0  0  0  0  0  0  0  0
   -2.3827   -0.8399    4.0391 C   0  0  0  0  0  0  0  0  0  0  0  0
   -0.7253   -0.6708    2.2379 C   0  0  0  0  0  0  0  0  0  0  0  0
   -1.0273   -0.6973    3.6197 C   0  0  0  0  0  0  0  0  0  0  0  0
    0.0836   -0.5838    4.4741 C   0  0  0  0  0  0  0  0  0  0  0  0
    1.3180   -0.4578    4.0539 N   0  0  0  0  0  0  0  0  0  0  0  0
    1.4924   -0.4469    2.7010 C   0  0  0  0  0  0  0  0  0  0  0  0
    2.7551   -0.3167    2.2776 N   0  0  0  0  0  0  0  0  0  0  0  0
    3.1683   -0.2713    0.8896 C   0  0  0  0  0  0  0  0  0  0  0  0
    0.5189   -0.5612    1.7901 N   0  0  0  0  0  0  0  0  0  0  0  0
    4.7039    0.6837   -2.3212 C   0  0  0  0  0  3  0  0  0  0  0  0
    5.5362   -0.0479   -3.2832 C   0  0  0  0  0  0  0  0  0  0  0  0
    5.2225    0.2975   -5.1680 S   0  0  0  0  0  0  0  0  0  0  0  0
    4.5045    1.9565   -5.1391 C   0  0  0  0  0  0  0  0  0  0  0  0
    5.5106    3.1186   -5.2219 C   0  0  2  0  0  0  0  0  0  0  0  0
    4.9650    4.0450   -5.4572 H   0  0  0  0  0  0  0  0  0  0  0  0
    6.4459    2.8928   -6.2911 N   0  0  0  0  0  0  0  0  0  0  0  0
    7.1370    3.9126   -6.8621 C   0  0  0  0  0  0  0  0  0  0  0  0
    8.3323    3.4760   -7.6890 C   0  0  0  0  0  0  0  0  0  0  0  0
    6.8360    5.0852   -6.7260 O   0  0  0  0  0  0  0  0  0  0  0  0
    6.2789    3.3389   -3.9038 C   0  0  0  0  0  0  0  0  0  0  0  0
    5.6206    3.9615   -2.8934 N   0  0  0  0  0  0  0  0  0  0  0  0
    4.2049    4.2531   -2.7719 C   0  0  0  0  0  0  0  0  0  0  0  0
    7.4423    2.9899   -3.7905 O   0  0  0  0  0  0  0  0  0  0  0  0
    3.7248   -1.8961   -2.0619 H   0  0  0  0  0  0  0  0  0  0  0  0
    3.4771   -1.8698   -3.8238 H   0  0  0  0  0  0  0  0  0  0  0  0
    1.9446   -3.5266   -2.2095 H   0  0  0  0  0  0  0  0  0  0  0  0
    1.2425   -2.7514   -3.6508 H   0  0  0  0  0  0  0  0  0  0  0  0
    1.1571   -1.6514   -0.8083 H   0  0  0  0  0  0  0  0  0  0  0  0
    0.8522    0.5563   -1.8186 H   0  0  0  0  0  0  0  0  0  0  0  0
    0.4801   -0.1989   -3.4013 H   0  0  0  0  0  0  0  0  0  0  0  0
   -0.5735   -2.6843    0.0736 H   0  0  0  0  0  0  0  0  0  0  0  0
   -2.1294   -2.6455   -0.8001 H   0  0  0  0  0  0  0  0  0  0  0  0
   -2.2832   -0.2475   -0.6197 H   0  0  0  0  0  0  0  0  0  0  0  0
   -0.5428   -0.0938   -0.2233 H   0  0  0  0  0  0  0  0  0  0  0  0
   -8.6418   -5.1399    4.4319 H   0  0  0  0  0  0  0  0  0  0  0  0
   -9.1736   -3.6279    3.6358 H   0  0  0  0  0  0  0  0  0  0  0  0
   -8.7858   -3.6365    5.3917 H   0  0  0  0  0  0  0  0  0  0  0  0
   -8.5574   -1.5584    4.4520 H   0  0  0  0  0  0  0  0  0  0  0  0
   -9.4255    1.9148    4.5946 H   0  0  0  0  0  0  0  0  0  0  0  0
   -9.2319    0.3738    5.4836 H   0  0  0  0  0  0  0  0  0  0  0  0
   -9.6170    0.3612    3.7271 H   0  0  0  0  0  0  0  0  0  0  0  0
   -2.6109   -0.8630    5.1088 H   0  0  0  0  0  0  0  0  0  0  0  0
   -0.0752   -0.5981    5.5606 H   0  0  0  0  0  0  0  0  0  0  0  0
    3.4402   -0.2402    3.0165 H   0  0  0  0  0  0  0  0  0  0  0  0
    2.6643    0.5273    0.3212 H   0  0  0  0  0  0  0  0  0  0  0  0
    2.9739   -1.2311    0.3856 H   0  0  0  0  0  0  0  0  0  0  0  0
    4.2459   -0.0775    0.8387 H   0  0  0  0  0  0  0  0  0  0  0  0
    5.1848    1.5445   -1.8521 H   0  0  0  0  0  0  0  0  0  0  0  0
    5.4503   -1.1442   -3.3020 H   0  0  0  0  0  0  0  0  0  0  0  0
    6.5925    0.2073   -3.1346 H   0  0  0  0  0  0  0  0  0  0  0  0
    3.9087    2.0241   -4.2163 H   0  0  0  0  0  0  0  0  0  0  0  0
    3.8193    2.0171   -5.9962 H   0  0  0  0  0  0  0  0  0  0  0  0
    6.8516    1.9599   -6.2844 H   0  0  0  0  0  0  0  0  0  0  0  0
    8.1444    2.5349   -8.2257 H   0  0  0  0  0  0  0  0  0  0  0  0
    9.1840    3.3189   -7.0094 H   0  0  0  0  0  0  0  0  0  0  0  0
    8.5876    4.2712   -8.3997 H   0  0  0  0  0  0  0  0  0  0  0  0
    6.1552    3.9504   -2.0322 H   0  0  0  0  0  0  0  0  0  0  0  0
    3.7767    4.4768   -3.7578 H   0  0  0  0  0  0  0  0  0  0  0  0
    4.0802    5.1583   -2.1581 H   0  0  0  0  0  0  0  0  0  0  0  0
    3.6386    3.4210   -2.3107 H   0  0  0  0  0  0  0  0  0  0  0  0
  2  1  2  0  0  0  0
  3  7  1  0  0  0  0
  3  2  1  0  0  0  0
  4  3  1  0  0  0  0
  4  5  1  0  0  0  0
  4 50  1  0  0  0  0
  5 52  1  0  0  0  0
  5  6  1  0  0  0  0
  6 54  1  1  0  0  0
  7  6  1  0  0  0  0
  7 55  1  0  0  0  0
  8  6  1  0  0  0  0
  8  9  1  0  0  0  0
  9 10  1  0  0  0  0
  9 57  1  0  0  0  0
 10 11  1  0  0  0  0
 11 12  1  0  0  0  0
 11 28  1  0  0  0  0
 12 14  1  0  0  0  0
 13 12  2  0  0  0  0
 14 15  1  0  0  0  0
 14 27  2  0  0  0  0
 15 16  2  0  0  0  0
 15 25  1  0  0  0  0
 16 18  1  0  0  0  0
 17 16  1  0  0  0  0
 18 19  1  0  0  0  0
 18 21  2  0  0  0  0
 19 20  1  0  0  0  0
 20 61  1  0  0  0  0
 20 63  1  0  0  0  0
 21 64  1  0  0  0  0
 22 21  1  0  0  0  0
 22 23  1  0  0  0  0
 23 24  1  0  0  0  0
 24 65  1  0  0  0  0
 24 66  1  0  0  0  0
 25 22  2  0  0  0  0
 26 25  1  0  0  0  0
 27 68  1  0  0  0  0
 28 29  1  0  0  0  0
 29 27  1  0  0  0  0
 29 30  2  0  0  0  0
 30 69  1  0  0  0  0
 31 30  1  0  0  0  0
 32 31  2  0  0  0  0
 33 32  1  0  0  0  0
 33 70  1  0  0  0  0
 34 33  1  0  0  0  0
 35 28  2  0  0  0  0
 35 32  1  0  0  0  0
 36  2  1  0  0  0  0
 36 74  1  0  0  0  0
 37 76  1  0  0  0  0
 37 36  1  0  0  0  0
 38 39  1  0  0  0  0
 38 37  1  0  0  0  0
 39 77  1  0  0  0  0
 40 41  1  6  0  0  0
 40 39  1  0  0  0  0
 40 46  1  0  0  0  0
 42 79  1  0  0  0  0
 42 40  1  0  0  0  0
 43 45  2  0  0  0  0
 43 42  1  0  0  0  0
 44 81  1  0  0  0  0
 44 43  1  0  0  0  0
 46 49  2  0  0  0  0
 46 47  1  0  0  0  0
 47 48  1  0  0  0  0
 47 83  1  0  0  0  0
 48 86  1  0  0  0  0
 48 85  1  0  0  0  0
 51  4  1  0  0  0  0
 53  5  1  0  0  0  0
 56  7  1  0  0  0  0
 58  9  1  0  0  0  0
 59 10  1  0  0  0  0
 60 10  1  0  0  0  0
 62 20  1  0  0  0  0
 67 24  1  0  0  0  0
 71 34  1  0  0  0  0
 72 34  1  0  0  0  0
 73 34  1  0  0  0  0
 75 37  1  0  0  0  0
 78 39  1  0  0  0  0
 80 44  1  0  0  0  0
 82 44  1  0  0  0  0
 84 48  1  0  0  0  0
M  END
