86
-1 1
O         2.693496    1.643512   -1.571461
C         3.303769    0.719625   -2.177506
N         2.505049   -0.312509   -2.728065
C         2.983263   -1.684718   -2.854772
C         1.733248   -2.556426   -2.683467
C         0.812076   -1.666712   -1.858396
C         1.079348   -0.293860   -2.474332
O        -0.535151   -2.084903   -1.905622
C        -1.173717   -2.117390   -0.666412
C        -1.436586   -0.714784   -0.104399
N        -1.748950   -0.758323    1.321619
C        -3.091975   -0.930144    1.685608
O        -3.956175   -1.048480    0.836245
C        -3.377166   -0.953864    3.127126
C        -4.803670   -1.119127    3.508196
C        -5.358580   -2.394665    3.653529
Cl        -4.381784   -3.808811    3.393482
C        -6.708319   -2.564040    3.991515
O        -7.158866   -3.825411    4.109254
C        -8.507330   -4.051970    4.407141
C        -7.509943   -1.435881    4.189331
C        -6.976521   -0.151599    4.047456
O        -7.692251    0.973343    4.219809
C        -9.056137    0.885063    4.520648
C        -5.624033   -0.004480    3.708437
Cl        -4.984815    1.600019    3.513954
C        -2.382712   -0.839947    4.039145
C        -0.725333   -0.670798    2.237859
C        -1.027308   -0.697308    3.619689
C         0.083573   -0.583811    4.474073
N         1.318005   -0.457789    4.053859
C         1.492418   -0.446927    2.701027
N         2.755123   -0.316735    2.277629
C         3.168303   -0.271257    0.889573
N         0.518889   -0.561227    1.790113
C         4.703906    0.683717   -2.321200
C         5.536174   -0.047901   -3.283153
S         5.222503    0.297524   -5.167977
C         4.504545    1.956541   -5.139111
C         5.510640    3.118626   -5.221949
H         4.965028    4.044989   -5.457166
N         6.445894    2.892796   -6.291109
C         7.137000    3.912629   -6.862122
C         8.332282    3.475963   -7.689023
O         6.835976    5.085194   -6.726033
C         6.278940    3.338905   -3.903798
N         5.620562    3.961511   -2.893402
C         4.204922    4.253140   -2.771913
O         7.442327    2.989930   -3.790544
H         3.724760   -1.896067   -2.061856
H         3.477104   -1.869808   -3.823823
H         1.944571   -3.526629   -2.209535
H         1.242492   -2.751387   -3.650758
H         1.157140   -1.651374   -0.808342
H         0.852179    0.556284   -1.818639
H         0.480063   -0.198900   -3.401316
H        -0.573506   -2.684272    0.073616
H        -2.129435   -2.645531   -0.800092
H        -2.283195   -0.247479   -0.619655
H        -0.542828   -0.093789   -0.223322
H        -8.641761   -5.139902    4.431873
H        -9.173616   -3.627904    3.635831
H        -8.785840   -3.636501    5.391672
H        -8.557411   -1.558413    4.451985
H        -9.425477    1.914806    4.594567
H        -9.231933    0.373846    5.483578
H        -9.617032    0.361226    3.727119
H        -2.610896   -0.863041    5.108761
H        -0.075189   -0.598100    5.560563
H         3.440210   -0.240161    3.016523
H         2.664263    0.527265    0.321188
H         2.973935   -1.231135    0.385622
H         4.245920   -0.077530    0.838732
H         5.184799    1.544479   -1.852106
H         5.450331   -1.144161   -3.301969
H         6.592508    0.207256   -3.134580
H         3.908707    2.024138   -4.216273
H         3.819327    2.017054   -5.996185
H         6.851613    1.959935   -6.284439
H         8.144371    2.534866   -8.225687
H         9.184045    3.318927   -7.009370
H         8.587608    4.271186   -8.399687
H         6.155166    3.950392   -2.032174
H         3.776710    4.476791   -3.757834
H         4.080184    5.158337   -2.158057
H         3.638553    3.421018   -2.310742
