81
-1 1
O         3.672400   -2.000585    4.267732
C         3.146892   -1.534615    3.213486
N         2.081143   -0.624808    3.434565
C         0.880806   -0.616926    2.632173
C         0.480603    0.764988    2.093002
C        -0.326569    0.678622    0.798804
C        -1.633904   -0.101759    0.937694
N        -2.186534   -0.456415   -0.371737
C        -3.100719    0.430016   -0.957129
O        -3.474739    1.425078   -0.363848
C        -3.564168    0.085707   -2.309803
C        -4.534647    1.026983   -2.926109
C        -4.086264    2.142111   -3.641080
Cl        -2.384572    2.439632   -3.820749
C        -4.991366    3.049253   -4.209681
O        -4.474620    4.093843   -4.879131
C        -5.331286    5.051786   -5.432956
C        -6.364127    2.830662   -4.060233
C        -6.833797    1.723546   -3.347749
O        -8.139412    1.457539   -3.163803
C        -9.100741    2.337984   -3.672600
C        -5.911994    0.828803   -2.786806
Cl        -6.515296   -0.529781   -1.883867
C        -3.105501   -1.015900   -2.949292
C        -1.719328   -1.581735   -1.007243
C        -2.167040   -1.882865   -2.314707
C        -1.606202   -3.038400   -2.885267
N        -0.743671   -3.811815   -2.271405
C        -0.402697   -3.439044   -1.006071
N         0.446672   -4.257373   -0.367344
C         0.952528   -4.055167    0.973817
N        -0.849659   -2.354417   -0.366609
C         3.584717   -1.812057    1.911654
C         3.557398   -0.847735    0.795859
S         5.081323    0.273621    0.666121
C         5.255026    0.902810    2.366799
C         6.447456    0.334791    3.136493
H         7.313975    0.266274    2.456173
N         6.204761   -1.005529    3.634381
C         7.185857   -1.909896    3.777712
C         6.715234   -3.308516    4.111651
O         8.385300   -1.644108    3.645167
C         6.878231    1.278873    4.281471
N         8.055884    0.908389    4.847493
C         8.612291    1.586116    5.984723
O         6.238457    2.258882    4.623590
H         1.932569   -0.549670    4.434324
H         0.035399   -1.052418    3.200794
H         1.042492   -1.291921    1.778826
H         1.404620    1.330675    1.896778
H        -0.071065    1.337255    2.859868
H         0.297432    0.173404    0.042523
H        -0.553142    1.684078    0.409868
H        -2.394475    0.493992    1.456261
H        -1.471763   -1.040407    1.478042
H        -4.690470    5.806360   -5.904290
H        -5.950514    5.541550   -4.661332
H        -5.992592    4.615408   -6.202253
H        -7.071262    3.529945   -4.498703
H       -10.077933    1.929726   -3.388379
H        -9.051122    2.408714   -4.773515
H        -8.998095    3.349400   -3.242207
H        -3.448640   -1.248730   -3.961519
H        -1.895213   -3.324569   -3.905153
H         0.799634   -5.018448   -0.931016
H         1.798322   -3.342799    1.029042
H         1.289176   -5.021526    1.372153
H         0.149492   -3.670734    1.617079
H         4.387230   -2.555243    1.870714
H         2.701870   -0.161327    0.820345
H         3.567386   -1.316944   -0.202201
H         4.314482    0.722972    2.908192
H         5.376655    1.991703    2.308393
H         5.241103   -1.307490    3.883060
H         5.630693   -3.337159    4.288308
H         7.270253   -3.676005    4.986604
H         6.967109   -3.960552    3.261733
H         8.483434    0.047495    4.491020
H         9.642594    1.927071    5.788155
H         8.630296    0.940905    6.880016
H         7.986219    2.462452    6.198691
