81
-1 1
O         2.121862   -0.832682    6.738576
C         1.567022   -1.145651    5.691911
N         1.671857   -0.392046    4.572984
C         1.061294   -0.562744    3.267294
C         0.632279    0.785249    2.690333
C         0.224669    0.716372    1.221381
C        -0.904370   -0.274564    0.949202
N        -1.258647   -0.324095   -0.471778
C        -2.384309    0.388541   -0.901713
O        -3.088862    0.993288   -0.112476
C        -2.656709    0.358059   -2.346935
C        -3.853836    1.112768   -2.800085
C        -3.769738    2.483279   -3.067704
Cl        -2.260381    3.318795   -2.875191
C        -4.894761    3.211412   -3.478852
O        -4.724671    4.524670   -3.713765
C        -5.821215    5.305906   -4.092287
C        -6.119696    2.553926   -3.626986
C        -6.226781    1.185673   -3.362740
O        -7.375638    0.494130   -3.481021
C        -8.546045    1.162825   -3.854047
C        -5.090187    0.476094   -2.951540
Cl        -5.252972   -1.220327   -2.601662
C        -1.847110   -0.310388   -3.203453
C        -0.431238   -1.007315   -1.331364
C        -0.705887   -1.012862   -2.718715
C         0.214000   -1.732514   -3.502530
N         1.266773   -2.344550   -3.017516
C         1.437040   -2.257396   -1.667891
N         2.523316   -2.854772   -1.160287
C         2.939869   -2.694214    0.219617
N         0.610303   -1.642584   -0.818216
C         0.760979   -2.410032    5.643821
C         0.981569   -3.404352    4.782339
S         4.071531    0.963680    0.391968
C         4.392778    0.459482    2.119305
C         5.493755   -0.610440    2.291455
H         5.325415   -1.378966    1.518659
N         5.463307   -1.232979    3.597025
C         4.581537   -2.185020    3.952936
C         4.726153   -2.710964    5.366702
O         3.691779   -2.585305    3.207069
C         6.909800   -0.041107    2.122161
N         7.115692    0.598815    0.959651
C         8.338884    1.298130    0.675521
O         7.756741   -0.176171    3.003038
H         2.329017    0.376642    4.669722
H         0.195904   -1.228593    3.383560
H         1.764337   -1.065559    2.580858
H         1.480769    1.486596    2.759343
H        -0.180680    1.200625    3.312069
H         1.114355    0.449259    0.627739
H        -0.094708    1.716379    0.888040
H        -1.817314    0.007375    1.487997
H        -0.608114   -1.290081    1.240441
H        -5.448225    6.330625   -4.207481
H        -6.613792    5.299563   -3.323592
H        -6.250600    4.973414   -5.054055
H        -6.996030    3.111896   -3.946295
H        -9.343923    0.410599   -3.867086
H        -8.461784    1.609192   -4.860757
H        -8.814166    1.954039   -3.132101
H        -2.061594   -0.312142   -4.276257
H         0.058633   -1.790802   -4.588174
H         3.177040   -3.200014   -1.849263
H         3.200957   -1.642122    0.430722
H         3.816735   -3.325647    0.404103
H         2.140576   -3.007389    0.903812
H         0.063248   -2.524624    6.479870
H         1.741412   -3.314284    3.996503
H         0.439774   -4.350359    4.873843
H         3.485830    0.011432    2.545350
H         4.651506    1.327636    2.752262
H         6.281542   -1.031865    4.166522
H         4.048456   -2.150886    6.030468
H         5.751147   -2.609578    5.751109
H         4.425156   -3.766166    5.385156
H         6.257989    0.797242    0.403723
H         8.211258    2.391304    0.755320
H         8.692116    1.069586   -0.342631
H         9.102195    0.983576    1.399435
