-1 1
 OpenBabel05192410563D

 81 83  0  0  1  0  0  0  0  0999 V2000
    3.6724   -2.0006    4.2677 O   0  0  0  0  0  0  0  0  0  0  0  0
    3.1469   -1.5346    3.2135 C   0  0  0  0  0  0  0  0  0  0  0  0
    2.0811   -0.6248    3.4346 N   0  0  0  0  0  0  0  0  0  0  0  0
    0.8808   -0.6169    2.6322 C   0  0  0  0  0  0  0  0  0  0  0  0
    0.4806    0.7650    2.0930 C   0  0  0  0  0  0  0  0  0  0  0  0
   -0.3266    0.6786    0.7988 C   0  0  0  0  0  0  0  0  0  0  0  0
   -1.6339   -0.1018    0.9377 C   0  0  0  0  0  0  0  0  0  0  0  0
   -2.1865   -0.4564   -0.3717 N   0  0  0  0  0  0  0  0  0  0  0  0
   -3.1007    0.4300   -0.9571 C   0  0  0  0  0  0  0  0  0  0  0  0
   -3.4747    1.4251   -0.3638 O   0  0  0  0  0  0  0  0  0  0  0  0
   -3.5642    0.0857   -2.3098 C   0  0  0  0  0  0  0  0  0  0  0  0
   -4.5346    1.0270   -2.9261 C   0  0  0  0  0  0  0  0  0  0  0  0
   -4.0863    2.1421   -3.6411 C   0  0  0  0  0  0  0  0  0  0  0  0
   -2.3846    2.4396   -3.8207 Cl  0  0  0  0  0  0  0  0  0  0  0  0
   -4.9914    3.0493   -4.2097 C   0  0  0  0  0  0  0  0  0  0  0  0
   -4.4746    4.0938   -4.8791 O   0  0  0  0  0  0  0  0  0  0  0  0
   -5.3313    5.0518   -5.4330 C   0  0  0  0  0  0  0  0  0  0  0  0
   -6.3641    2.8307   -4.0602 C   0  0  0  0  0  0  0  0  0  0  0  0
   -6.8338    1.7235   -3.3477 C   0  0  0  0  0  0  0  0  0  0  0  0
   -8.1394    1.4575   -3.1638 O   0  0  0  0  0  0  0  0  0  0  0  0
   -9.1007    2.3380   -3.6726 C   0  0  0  0  0  0  0  0  0  0  0  0
   -5.9120    0.8288   -2.7868 C   0  0  0  0  0  0  0  0  0  0  0  0
   -6.5153   -0.5298   -1.8839 Cl  0  0  0  0  0  0  0  0  0  0  0  0
   -3.1055   -1.0159   -2.9493 C   0  0  0  0  0  0  0  0  0  0  0  0
   -1.7193   -1.5817   -1.0072 C   0  0  0  0  0  0  0  0  0  0  0  0
   -2.1670   -1.8829   -2.3147 C   0  0  0  0  0  0  0  0  0  0  0  0
   -1.6062   -3.0384   -2.8853 C   0  0  0  0  0  0  0  0  0  0  0  0
   -0.7437   -3.8118   -2.2714 N   0  0  0  0  0  0  0  0  0  0  0  0
   -0.4027   -3.4390   -1.0061 C   0  0  0  0  0  0  0  0  0  0  0  0
    0.4467   -4.2574   -0.3673 N   0  0  0  0  0  0  0  0  0  0  0  0
    0.9525   -4.0552    0.9738 C   0  0  0  0  0  0  0  0  0  0  0  0
   -0.8497   -2.3544   -0.3666 N   0  0  0  0  0  0  0  0  0  0  0  0
    3.5847   -1.8121    1.9117 C   0  0  0  0  0  3  0  0  0  0  0  0
    3.5574   -0.8477    0.7959 C   0  0  0  0  0  0  0  0  0  0  0  0
    5.0813    0.2736    0.6661 S   0  0  0  0  0  0  0  0  0  0  0  0
    5.2550    0.9028    2.3668 C   0  0  0  0  0  0  0  0  0  0  0  0
    6.4475    0.3348    3.1365 C   0  0  2  0  0  0  0  0  0  0  0  0
    7.3140    0.2663    2.4562 H   0  0  0  0  0  0  0  0  0  0  0  0
    6.2048   -1.0055    3.6344 N   0  0  0  0  0  0  0  0  0  0  0  0
    7.1859   -1.9099    3.7777 C   0  0  0  0  0  0  0  0  0  0  0  0
    6.7152   -3.3085    4.1117 C   0  0  0  0  0  0  0  0  0  0  0  0
    8.3853   -1.6441    3.6452 O   0  0  0  0  0  0  0  0  0  0  0  0
    6.8782    1.2789    4.2815 C   0  0  0  0  0  0  0  0  0  0  0  0
    8.0559    0.9084    4.8475 N   0  0  0  0  0  0  0  0  0  0  0  0
    8.6123    1.5861    5.9847 C   0  0  0  0  0  0  0  0  0  0  0  0
    6.2385    2.2589    4.6236 O   0  0  0  0  0  0  0  0  0  0  0  0
    1.9326   -0.5497    4.4343 H   0  0  0  0  0  0  0  0  0  0  0  0
    0.0354   -1.0524    3.2008 H   0  0  0  0  0  0  0  0  0  0  0  0
    1.0425   -1.2919    1.7788 H   0  0  0  0  0  0  0  0  0  0  0  0
    1.4046    1.3307    1.8968 H   0  0  0  0  0  0  0  0  0  0  0  0
   -0.0711    1.3373    2.8599 H   0  0  0  0  0  0  0  0  0  0  0  0
    0.2974    0.1734    0.0425 H   0  0  0  0  0  0  0  0  0  0  0  0
   -0.5531    1.6841    0.4099 H   0  0  0  0  0  0  0  0  0  0  0  0
   -2.3945    0.4940    1.4563 H   0  0  0  0  0  0  0  0  0  0  0  0
   -1.4718   -1.0404    1.4780 H   0  0  0  0  0  0  0  0  0  0  0  0
   -4.6905    5.8064   -5.9043 H   0  0  0  0  0  0  0  0  0  0  0  0
   -5.9505    5.5415   -4.6613 H   0  0  0  0  0  0  0  0  0  0  0  0
   -5.9926    4.6154   -6.2023 H   0  0  0  0  0  0  0  0  0  0  0  0
   -7.0713    3.5299   -4.4987 H   0  0  0  0  0  0  0  0  0  0  0  0
  -10.0779    1.9297   -3.3884 H   0  0  0  0  0  0  0  0  0  0  0  0
   -9.0511    2.4087   -4.7735 H   0  0  0  0  0  0  0  0  0  0  0  0
   -8.9981    3.3494   -3.2422 H   0  0  0  0  0  0  0  0  0  0  0  0
   -3.4486   -1.2487   -3.9615 H   0  0  0  0  0  0  0  0  0  0  0  0
   -1.8952   -3.3246   -3.9052 H   0  0  0  0  0  0  0  0  0  0  0  0
    0.7996   -5.0184   -0.9310 H   0  0  0  0  0  0  0  0  0  0  0  0
    1.7983   -3.3428    1.0290 H   0  0  0  0  0  0  0  0  0  0  0  0
    1.2892   -5.0215    1.3722 H   0  0  0  0  0  0  0  0  0  0  0  0
    0.1495   -3.6707    1.6171 H   0  0  0  0  0  0  0  0  0  0  0  0
    4.3872   -2.5552    1.8707 H   0  0  0  0  0  0  0  0  0  0  0  0
    2.7019   -0.1613    0.8203 H   0  0  0  0  0  0  0  0  0  0  0  0
    3.5674   -1.3169   -0.2022 H   0  0  0  0  0  0  0  0  0  0  0  0
    4.3145    0.7230    2.9082 H   0  0  0  0  0  0  0  0  0  0  0  0
    5.3767    1.9917    2.3084 H   0  0  0  0  0  0  0  0  0  0  0  0
    5.2411   -1.3075    3.8831 H   0  0  0  0  0  0  0  0  0  0  0  0
    5.6307   -3.3372    4.2883 H   0  0  0  0  0  0  0  0  0  0  0  0
    7.2703   -3.6760    4.9866 H   0  0  0  0  0  0  0  0  0  0  0  0
    6.9671   -3.9606    3.2617 H   0  0  0  0  0  0  0  0  0  0  0  0
    8.4834    0.0475    4.4910 H   0  0  0  0  0  0  0  0  0  0  0  0
    9.6426    1.9271    5.7882 H   0  0  0  0  0  0  0  0  0  0  0  0
    8.6303    0.9409    6.8800 H   0  0  0  0  0  0  0  0  0  0  0  0
    7.9862    2.4625    6.1987 H   0  0  0  0  0  0  0  0  0  0  0  0
  2  3  1  0  0  0  0
  2  1  2  0  0  0  0
  3 47  1  0  0  0  0
  4 48  1  0  0  0  0
  4  3  1  0  0  0  0
  5  4  1  0  0  0  0
  5 51  1  0  0  0  0
  6  7  1  0  0  0  0
  6  5  1  0  0  0  0
  7 54  1  0  0  0  0
  7 55  1  0  0  0  0
  8  7  1  0  0  0  0
  9  8  1  0  0  0  0
  9 10  2  0  0  0  0
 11  9  1  0  0  0  0
 12 22  1  0  0  0  0
 12 11  1  0  0  0  0
 13 12  2  0  0  0  0
 14 13  1  0  0  0  0
 15 18  2  0  0  0  0
 15 13  1  0  0  0  0
 16 15  1  0  0  0  0
 17 16  1  0  0  0  0
 17 57  1  0  0  0  0
 18 19  1  0  0  0  0
 19 20  1  0  0  0  0
 19 22  2  0  0  0  0
 21 60  1  0  0  0  0
 21 62  1  0  0  0  0
 21 20  1  0  0  0  0
 22 23  1  0  0  0  0
 24 26  1  0  0  0  0
 24 11  2  0  0  0  0
 25  8  1  0  0  0  0
 25 32  2  0  0  0  0
 26 25  1  0  0  0  0
 27 26  2  0  0  0  0
 27 28  1  0  0  0  0
 28 29  2  0  0  0  0
 29 30  1  0  0  0  0
 29 32  1  0  0  0  0
 30 31  1  0  0  0  0
 31 66  1  0  0  0  0
 31 67  1  0  0  0  0
 31 68  1  0  0  0  0
 33  2  1  0  0  0  0
 34 70  1  0  0  0  0
 34 33  1  0  0  0  0
 35 34  1  0  0  0  0
 35 36  1  0  0  0  0
 36 72  1  0  0  0  0
 36 37  1  0  0  0  0
 37 38  1  6  0  0  0
 37 39  1  0  0  0  0
 37 43  1  0  0  0  0
 39 40  1  0  0  0  0
 39 74  1  0  0  0  0
 40 41  1  0  0  0  0
 41 75  1  0  0  0  0
 41 76  1  0  0  0  0
 42 40  2  0  0  0  0
 43 46  2  0  0  0  0
 43 44  1  0  0  0  0
 44 45  1  0  0  0  0
 45 81  1  0  0  0  0
 45 80  1  0  0  0  0
 49  4  1  0  0  0  0
 50  5  1  0  0  0  0
 52  6  1  0  0  0  0
 53  6  1  0  0  0  0
 56 17  1  0  0  0  0
 58 17  1  0  0  0  0
 59 18  1  0  0  0  0
 61 21  1  0  0  0  0
 63 24  1  0  0  0  0
 64 27  1  0  0  0  0
 65 30  1  0  0  0  0
 69 33  1  0  0  0  0
 71 34  1  0  0  0  0
 73 36  1  0  0  0  0
 77 41  1  0  0  0  0
 78 44  1  0  0  0  0
 79 45  1  0  0  0  0
M  END
