105
-1 1
O         1.263310   -0.925521    7.186598
C         1.048177   -1.781497    6.313817
N         2.152245   -1.963784    5.347834
C         2.129380   -1.338217    4.101669
C         3.200802   -0.523100    3.692940
C         3.166118    0.164656    2.481361
C         2.063361    0.075938    1.629101
C         1.955261    0.858589    0.345950
C         2.123777   -0.017392   -0.900464
N         1.674975    0.680491   -2.108217
C         2.615696    1.466546   -2.790360
O         3.771208    1.514771   -2.416295
C         2.116065    2.226530   -3.953158
C         3.097861    3.065186   -4.688400
C         4.070246    2.499946   -5.507932
Cl         4.159300    0.777450   -5.723780
C         4.993026    3.316916   -6.193194
O         5.900641    2.693059   -6.964090
C         6.855073    3.455292   -7.647833
C         4.918896    4.699502   -6.050134
C         3.937385    5.272595   -5.230885
O         3.954030    6.621735   -5.158092
C         3.029152    7.263017   -4.323194
C         3.029982    4.461121   -4.554755
C         0.800995    2.209571   -4.277118
C         0.341610    0.644036   -2.440458
C        -0.125930    1.417380   -3.532537
C        -1.503034    1.335345   -3.771655
N        -2.328760    0.599019   -3.060342
C        -1.771157   -0.119035   -2.054026
N        -2.577189   -0.912935   -1.331421
C        -4.003490   -1.036466   -1.487265
C        -4.428659   -2.478383   -1.219303
N        -3.871705   -2.978119    0.023260
C        -4.474555   -2.436909    1.240676
C        -5.835657   -3.059068    1.565324
N        -5.785473   -4.514999    1.625378
C        -5.158905   -5.064586    0.432788
C        -3.793906   -4.432114    0.123305
C        -5.253603   -5.043950    2.866198
N        -0.473111   -0.112190   -1.720193
C         1.020692   -0.775081    2.015344
C         1.050697   -1.478050    3.210349
C        -0.097583   -2.573972    6.189408
C        -0.232821   -3.780858    5.352948
S        -1.550229   -3.769718    3.968386
C        -2.786954   -2.590480    4.569941
C        -2.716441   -1.182035    3.972149
H        -2.418430   -1.247064    2.909068
N        -1.715603   -0.384721    4.666933
C        -1.138615    0.713912    4.129236
C         0.057404    1.272226    4.857950
O        -1.570484    1.264059    3.112109
C        -4.138181   -0.557520    3.964786
N        -4.203457    0.663157    3.393976
C        -5.432367    1.401074    3.286004
O        -5.118615   -1.164612    4.375979
H         2.973402   -1.656955    5.862008
H         4.058140   -0.397429    4.360587
H         4.006031    0.812107    2.210683
H         2.701461    1.667660    0.316584
H         0.958579    1.327851    0.305690
H         1.523496   -0.928468   -0.805530
H         3.176050   -0.285259   -1.047949
H         7.488080    2.745091   -8.193262
H         7.485364    4.037963   -6.953948
H         6.386178    4.146056   -8.370341
H         5.611033    5.370166   -6.556457
H         3.228661    8.338968   -4.400478
H         3.143673    6.952467   -3.270316
H         1.988759    7.069752   -4.638350
H         2.269768    4.875726   -3.894471
H         0.437007    2.799930   -5.123528
H        -1.939070    1.915424   -4.595683
H        -2.160664   -1.469195   -0.589546
H        -4.279699   -0.740014   -2.507547
H        -4.529159   -0.344240   -0.803992
H        -4.038832   -3.109832   -2.034069
H        -5.536381   -2.529835   -1.278972
H        -4.542715   -1.339736    1.180941
H        -3.781268   -2.660028    2.063355
H        -6.576422   -2.768813    0.796997
H        -6.189402   -2.659207    2.527477
H        -5.837418   -4.898759   -0.425330
H        -5.056844   -6.156063    0.548549
H        -3.376613   -4.839823   -0.811671
H        -3.077836   -4.674393    0.927264
H        -5.799775   -4.603950    3.714021
H        -4.172836   -4.861319    3.038991
H        -5.408849   -6.134587    2.896834
H         0.142913   -0.870634    1.368799
H         0.207370   -2.115433    3.466359
H        -0.797996   -2.448920    7.021484
H        -0.503167   -4.673418    5.936495
H         0.696700   -3.992865    4.803812
H        -2.726961   -2.530779    5.665996
H        -3.774173   -3.007454    4.343953
H        -1.158555   -0.915718    5.355252
H         0.892034    1.319228    4.143324
H         0.366930    0.688575    5.736623
H        -0.180360    2.303933    5.157279
H        -3.308023    1.070445    3.088817
H        -6.235051    0.805926    3.740374
H        -5.693057    1.599479    2.232680
H        -5.366625    2.369115    3.809125
