-1 1
 OpenBabel05232413493D

100102  0  0  1  0  0  0  0  0999 V2000
    3.3086    1.6806    1.2834 O   0  0  0  0  0  0  0  0  0  0  0  0
    2.1108    1.8020    1.0611 C   0  0  0  0  0  0  0  0  0  0  0  0
    1.6868    2.6271    0.0378 N   0  0  0  0  0  0  0  0  0  0  0  0
    0.5583    2.5329   -0.7865 C   0  0  0  0  0  0  0  0  0  0  0  0
    0.0498    1.2943   -1.1974 C   0  0  0  0  0  0  0  0  0  0  0  0
   -1.0369    1.2139   -2.0738 C   0  0  0  0  0  0  0  0  0  0  0  0
   -1.5460   -0.1412   -2.5011 C   0  0  0  0  0  0  0  0  0  0  0  0
   -2.6179   -0.7103   -1.5555 C   0  0  0  0  0  0  0  0  0  0  0  0
   -2.6330   -2.1740   -1.5908 N   0  0  0  0  0  0  0  0  0  0  0  0
   -3.5313   -2.8176   -2.4531 C   0  0  0  0  0  0  0  0  0  0  0  0
   -4.3062   -2.1662   -3.1288 O   0  0  0  0  0  0  0  0  0  0  0  0
   -3.4613   -4.2943   -2.4876 C   0  0  0  0  0  0  0  0  0  0  0  0
   -4.4296   -5.0007   -3.3628 C   0  0  0  0  0  0  0  0  0  0  0  0
   -5.2661   -6.0342   -2.9147 C   0  0  0  0  0  0  0  0  0  0  0  0
   -5.2814   -6.5214   -1.2293 Cl  0  0  0  0  0  0  0  0  0  0  0  0
   -6.1420   -6.6985   -3.7738 C   0  0  0  0  0  0  0  0  0  0  0  0
   -6.2051   -6.3307   -5.1128 C   0  0  0  0  0  0  0  0  0  0  0  0
   -5.3984   -5.2957   -5.5842 C   0  0  0  0  0  0  0  0  0  0  0  0
   -4.5309   -4.6434   -4.7171 C   0  0  0  0  0  0  0  0  0  0  0  0
   -2.5086   -4.9541   -1.7776 C   0  0  0  0  0  0  0  0  0  0  0  0
   -1.6733   -2.8416   -0.8689 C   0  0  0  0  0  0  0  0  0  0  0  0
   -1.5803   -4.2505   -0.9545 C   0  0  0  0  0  0  0  0  0  0  0  0
   -0.5286   -4.8175   -0.2171 C   0  0  0  0  0  0  0  0  0  0  0  0
    0.3135   -4.1223    0.5171 N   0  0  0  0  0  0  0  0  0  0  0  0
    0.1111   -2.7826    0.5464 C   0  0  0  0  0  0  0  0  0  0  0  0
    0.9071   -2.0114    1.2990 N   0  0  0  0  0  0  0  0  0  0  0  0
    2.1056   -2.3965    2.0066 C   0  0  0  0  0  0  0  0  0  0  0  0
    3.3566   -1.7948    1.3636 C   0  0  0  0  0  0  0  0  0  0  0  0
    4.5599   -1.7406    2.2956 C   0  0  0  0  0  0  0  0  0  0  0  0
    5.7466   -1.0195    1.6434 C   0  0  0  0  0  0  0  0  0  0  0  0
    6.9072   -0.7922    2.4877 N   0  0  0  0  0  0  0  0  0  0  0  0
    6.6911    0.1210    3.5987 C   0  0  0  0  0  0  0  0  0  0  0  0
    6.1648    1.4879    3.1841 C   0  0  0  0  0  0  0  0  0  0  0  0
    7.6011   -2.0049    2.8739 C   0  0  0  0  0  0  0  0  0  0  0  0
    9.0928   -1.7993    3.1193 C   0  0  0  0  0  0  0  0  0  0  0  0
   -0.8453   -2.1277   -0.1288 N   0  0  0  0  0  0  0  0  0  0  0  0
   -1.6241    2.3929   -2.5426 C   0  0  0  0  0  0  0  0  0  0  0  0
   -1.1164    3.6282   -2.1439 C   0  0  0  0  0  0  0  0  0  0  0  0
   -0.0332    3.7053   -1.2754 C   0  0  0  0  0  0  0  0  0  0  0  0
    1.1286    1.1598    1.9649 C   0  0  0  0  0  0  0  0  0  0  0  0
   -0.1467    1.5376    2.1535 C   0  0  0  0  0  0  0  0  0  0  0  0
   -0.7500    4.2395    3.6720 S   0  0  0  0  0  1  0  0  0  0  0  0
   -0.7145    5.0587    2.0379 C   0  0  0  0  0  0  0  0  0  0  0  0
    0.4659    6.0291    1.7908 C   0  0  2  0  0  0  0  0  0  0  0  0
    0.4499    6.7717    2.6077 H   0  0  0  0  0  0  0  0  0  0  0  0
    0.3722    6.7061    0.5124 N   0  0  0  0  0  0  0  0  0  0  0  0
   -0.5227    7.6725    0.2034 C   0  0  0  0  0  0  0  0  0  0  0  0
   -0.3847    8.2342   -1.2055 C   0  0  0  0  0  0  0  0  0  0  0  0
   -1.4001    8.0608    0.9530 O   0  0  0  0  0  0  0  0  0  0  0  0
    1.8471    5.3522    1.7855 C   0  0  0  0  0  0  0  0  0  0  0  0
    2.1832    4.7647    2.9349 N   0  0  0  0  0  0  0  0  0  0  0  0
    3.4446    4.1092    3.1643 C   0  0  0  0  0  0  0  0  0  0  0  0
    2.5648    5.3867    0.7758 O   0  0  0  0  0  0  0  0  0  0  0  0
    2.3074    3.4241   -0.1105 H   0  0  0  0  0  0  0  0  0  0  0  0
    0.5174    0.3726   -0.8436 H   0  0  0  0  0  0  0  0  0  0  0  0
   -0.6975   -0.8409   -2.5191 H   0  0  0  0  0  0  0  0  0  0  0  0
   -1.9523   -0.0991   -3.5234 H   0  0  0  0  0  0  0  0  0  0  0  0
   -3.6189   -0.3667   -1.8374 H   0  0  0  0  0  0  0  0  0  0  0  0
   -2.4032   -0.4078   -0.5246 H   0  0  0  0  0  0  0  0  0  0  0  0
   -6.7747   -7.4950   -3.3802 H   0  0  0  0  0  0  0  0  0  0  0  0
   -6.8925   -6.8496   -5.7842 H   0  0  0  0  0  0  0  0  0  0  0  0
   -5.4473   -4.9920   -6.6317 H   0  0  0  0  0  0  0  0  0  0  0  0
   -3.9113   -3.8233   -5.0808 H   0  0  0  0  0  0  0  0  0  0  0  0
   -2.4370   -6.0435   -1.8378 H   0  0  0  0  0  0  0  0  0  0  0  0
   -0.3812   -5.9049   -0.2452 H   0  0  0  0  0  0  0  0  0  0  0  0
    0.6795   -1.0187    1.2755 H   0  0  0  0  0  0  0  0  0  0  0  0
    2.1473   -3.4936    2.0355 H   0  0  0  0  0  0  0  0  0  0  0  0
    2.0221   -2.0438    3.0494 H   0  0  0  0  0  0  0  0  0  0  0  0
    3.1317   -0.7626    1.0533 H   0  0  0  0  0  0  0  0  0  0  0  0
    3.5977   -2.3525    0.4421 H   0  0  0  0  0  0  0  0  0  0  0  0
    4.8523   -2.7568    2.6157 H   0  0  0  0  0  0  0  0  0  0  0  0
    4.2669   -1.1962    3.2100 H   0  0  0  0  0  0  0  0  0  0  0  0
    5.3905   -0.0516    1.2580 H   0  0  0  0  0  0  0  0  0  0  0  0
    6.0781   -1.5931    0.7599 H   0  0  0  0  0  0  0  0  0  0  0  0
    7.6583    0.2574    4.1080 H   0  0  0  0  0  0  0  0  0  0  0  0
    6.0121   -0.3183    4.3668 H   0  0  0  0  0  0  0  0  0  0  0  0
    6.8169    1.9298    2.4153 H   0  0  0  0  0  0  0  0  0  0  0  0
    6.1503    2.1623    4.0535 H   0  0  0  0  0  0  0  0  0  0  0  0
    5.1444    1.4494    2.7758 H   0  0  0  0  0  0  0  0  0  0  0  0
    7.4832   -2.7332    2.0548 H   0  0  0  0  0  0  0  0  0  0  0  0
    7.1451   -2.4824    3.7720 H   0  0  0  0  0  0  0  0  0  0  0  0
    9.5614   -1.3438    2.2344 H   0  0  0  0  0  0  0  0  0  0  0  0
    9.5869   -2.7613    3.3265 H   0  0  0  0  0  0  0  0  0  0  0  0
    9.2848   -1.1405    3.9792 H   0  0  0  0  0  0  0  0  0  0  0  0
   -2.4714    2.3412   -3.2315 H   0  0  0  0  0  0  0  0  0  0  0  0
   -1.5751    4.5510   -2.5064 H   0  0  0  0  0  0  0  0  0  0  0  0
    0.3446    4.6724   -0.9447 H   0  0  0  0  0  0  0  0  0  0  0  0
    1.6061    0.4688    2.6669 H   0  0  0  0  0  0  0  0  0  0  0  0
   -0.7513    1.0936    2.9450 H   0  0  0  0  0  0  0  0  0  0  0  0
   -0.6515    2.2640    1.5176 H   0  0  0  0  0  0  0  0  0  0  0  0
   -1.6220    5.6650    1.9115 H   0  0  0  0  0  0  0  0  0  0  0  0
   -0.7102    4.3173    1.2203 H   0  0  0  0  0  0  0  0  0  0  0  0
    1.1880    6.5427   -0.0744 H   0  0  0  0  0  0  0  0  0  0  0  0
   -0.4854    9.3269   -1.1611 H   0  0  0  0  0  0  0  0  0  0  0  0
   -1.2169    7.8500   -1.8145 H   0  0  0  0  0  0  0  0  0  0  0  0
    0.5622    7.9685   -1.6962 H   0  0  0  0  0  0  0  0  0  0  0  0
    1.3799    4.5936    3.5784 H   0  0  0  0  0  0  0  0  0  0  0  0
    3.2818    3.0990    3.5654 H   0  0  0  0  0  0  0  0  0  0  0  0
    4.0593    4.6771    3.8836 H   0  0  0  0  0  0  0  0  0  0  0  0
    3.9944    4.0151    2.2201 H   0  0  0  0  0  0  0  0  0  0  0  0
  2  1  2  0  0  0  0
  2 40  1  0  0  0  0
  3  2  1  0  0  0  0
  4  3  1  0  0  0  0
  5 55  1  0  0  0  0
  5  4  1  0  0  0  0
  6  5  2  0  0  0  0
  7  6  1  0  0  0  0
  7  8  1  0  0  0  0
  8 59  1  0  0  0  0
  9  8  1  0  0  0  0
  9 21  1  0  0  0  0
 10  9  1  0  0  0  0
 11 10  2  0  0  0  0
 12 10  1  0  0  0  0
 12 20  2  0  0  0  0
 13 14  1  0  0  0  0
 13 12  1  0  0  0  0
 14 15  1  0  0  0  0
 16 60  1  0  0  0  0
 16 14  2  0  0  0  0
 17 16  1  0  0  0  0
 18 17  2  0  0  0  0
 18 19  1  0  0  0  0
 19 13  2  0  0  0  0
 20 22  1  0  0  0  0
 21 36  2  0  0  0  0
 22 21  1  0  0  0  0
 22 23  2  0  0  0  0
 23 24  1  0  0  0  0
 24 25  2  0  0  0  0
 25 26  1  0  0  0  0
 26 27  1  0  0  0  0
 27 67  1  0  0  0  0
 27 68  1  0  0  0  0
 28 27  1  0  0  0  0
 28 29  1  0  0  0  0
 29 71  1  0  0  0  0
 29 72  1  0  0  0  0
 30 29  1  0  0  0  0
 30 31  1  0  0  0  0
 31 34  1  0  0  0  0
 31 32  1  0  0  0  0
 32 75  1  0  0  0  0
 32 76  1  0  0  0  0
 33 32  1  0  0  0  0
 33 78  1  0  0  0  0
 34 35  1  0  0  0  0
 34 81  1  0  0  0  0
 35 83  1  0  0  0  0
 35 84  1  0  0  0  0
 36 25  1  0  0  0  0
 37 38  2  0  0  0  0
 37  6  1  0  0  0  0
 38 39  1  0  0  0  0
 39 87  1  0  0  0  0
 39  4  2  0  0  0  0
 40 41  2  0  0  0  0
 40 88  1  0  0  0  0
 41 89  1  0  0  0  0
 43 42  1  0  0  0  0
 44 43  1  0  0  0  0
 44 45  1  1  0  0  0
 46 44  1  0  0  0  0
 47 46  1  0  0  0  0
 47 49  2  0  0  0  0
 48 94  1  0  0  0  0
 48 47  1  0  0  0  0
 50 44  1  0  0  0  0
 50 51  1  0  0  0  0
 51 52  1  0  0  0  0
 51 97  1  0  0  0  0
 52 98  1  0  0  0  0
 52 99  1  0  0  0  0
 53 50  2  0  0  0  0
 54  3  1  0  0  0  0
 56  7  1  0  0  0  0
 57  7  1  0  0  0  0
 58  8  1  0  0  0  0
 61 17  1  0  0  0  0
 62 18  1  0  0  0  0
 63 19  1  0  0  0  0
 64 20  1  0  0  0  0
 65 23  1  0  0  0  0
 66 26  1  0  0  0  0
 69 28  1  0  0  0  0
 70 28  1  0  0  0  0
 73 30  1  0  0  0  0
 74 30  1  0  0  0  0
 77 33  1  0  0  0  0
 79 33  1  0  0  0  0
 80 34  1  0  0  0  0
 82 35  1  0  0  0  0
 85 37  1  0  0  0  0
 86 38  1  0  0  0  0
 90 41  1  0  0  0  0
 91 43  1  0  0  0  0
 92 43  1  0  0  0  0
 93 46  1  0  0  0  0
 95 48  1  0  0  0  0
 96 48  1  0  0  0  0
100 52  1  0  0  0  0
M  END
