100
-1 1
O         3.308644    1.680571    1.283413
C         2.110848    1.801998    1.061071
N         1.686818    2.627069    0.037761
C         0.558345    2.532898   -0.786492
C         0.049798    1.294273   -1.197448
C        -1.036854    1.213850   -2.073825
C        -1.546009   -0.141225   -2.501131
C        -2.617870   -0.710276   -1.555451
N        -2.633029   -2.174028   -1.590753
C        -3.531267   -2.817650   -2.453061
O        -4.306245   -2.166177   -3.128792
C        -3.461250   -4.294281   -2.487551
C        -4.429634   -5.000683   -3.362799
C        -5.266092   -6.034209   -2.914668
Cl        -5.281404   -6.521376   -1.229319
C        -6.141991   -6.698501   -3.773781
C        -6.205125   -6.330737   -5.112788
C        -5.398432   -5.295700   -5.584150
C        -4.530912   -4.643378   -4.717135
C        -2.508592   -4.954054   -1.777574
C        -1.673259   -2.841605   -0.868859
C        -1.580326   -4.250534   -0.954486
C        -0.528565   -4.817495   -0.217071
N         0.313497   -4.122298    0.517149
C         0.111085   -2.782571    0.546447
N         0.907075   -2.011385    1.299049
C         2.105569   -2.396509    2.006647
C         3.356623   -1.794843    1.363618
C         4.559856   -1.740555    2.295594
C         5.746645   -1.019456    1.643372
N         6.907180   -0.792238    2.487691
C         6.691060    0.120969    3.598685
C         6.164764    1.487868    3.184058
C         7.601079   -2.004924    2.873921
C         9.092780   -1.799334    3.119272
N        -0.845321   -2.127690   -0.128824
C        -1.624149    2.392914   -2.542625
C        -1.116375    3.628186   -2.143867
C        -0.033246    3.705296   -1.275446
C         1.128618    1.159814    1.964921
C        -0.146658    1.537586    2.153521
S        -0.749961    4.239515    3.671994
C        -0.714464    5.058699    2.037913
C         0.465902    6.029131    1.790784
H         0.449919    6.771660    2.607679
N         0.372225    6.706124    0.512426
C        -0.522673    7.672513    0.203413
C        -0.384746    8.234170   -1.205469
O        -1.400149    8.060756    0.953020
C         1.847085    5.352210    1.785505
N         2.183183    4.764672    2.934857
C         3.444550    4.109162    3.164288
O         2.564810    5.386711    0.775843
H         2.307424    3.424109   -0.110454
H         0.517373    0.372583   -0.843585
H        -0.697519   -0.840893   -2.519110
H        -1.952300   -0.099140   -3.523364
H        -3.618858   -0.366690   -1.837403
H        -2.403229   -0.407816   -0.524564
H        -6.774655   -7.495008   -3.380208
H        -6.892482   -6.849581   -5.784198
H        -5.447263   -4.992050   -6.631655
H        -3.911263   -3.823287   -5.080845
H        -2.437010   -6.043518   -1.837782
H        -0.381234   -5.904923   -0.245202
H         0.679477   -1.018723    1.275529
H         2.147333   -3.493586    2.035451
H         2.022088   -2.043822    3.049436
H         3.131656   -0.762595    1.053310
H         3.597734   -2.352504    0.442115
H         4.852304   -2.756751    2.615723
H         4.266904   -1.196161    3.209988
H         5.390493   -0.051601    1.257958
H         6.078056   -1.593106    0.759877
H         7.658256    0.257430    4.108042
H         6.012128   -0.318280    4.366804
H         6.816941    1.929752    2.415274
H         6.150327    2.162302    4.053473
H         5.144366    1.449395    2.775826
H         7.483162   -2.733242    2.054832
H         7.145080   -2.482371    3.772033
H         9.561414   -1.343767    2.234350
H         9.586899   -2.761265    3.326468
H         9.284816   -1.140503    3.979243
H        -2.471389    2.341157   -3.231457
H        -1.575064    4.551021   -2.506436
H         0.344624    4.672400   -0.944677
H         1.606077    0.468827    2.666864
H        -0.751286    1.093560    2.945022
H        -0.651460    2.263993    1.517571
H        -1.622020    5.665023    1.911530
H        -0.710232    4.317347    1.220319
H         1.187963    6.542726   -0.074375
H        -0.485418    9.326851   -1.161074
H        -1.216914    7.849995   -1.814491
H         0.562237    7.968466   -1.696221
H         1.379878    4.593560    3.578363
H         3.281771    3.099003    3.565378
H         4.059327    4.677095    3.883590
H         3.994425    4.015131    2.220054
