-1 1
 OpenBabel05232414493D

 85 87  0  0  1  0  0  0  0  0999 V2000
    0.9506    5.4383   -0.5764 O   0  0  0  0  0  0  0  0  0  0  0  0
    1.4338    5.5771    0.5410 C   0  0  0  0  0  0  0  0  0  0  0  0
    0.8978    6.6002    1.3695 N   0  0  0  0  0  0  0  0  0  0  0  0
    1.6013    7.6980    1.8901 C   0  0  0  0  0  0  0  0  0  0  0  0
    0.8802    8.7082    2.5465 C   0  0  0  0  0  0  0  0  0  0  0  0
    1.4936    9.8875    2.9701 C   0  0  0  0  0  0  0  0  0  0  0  0
    0.7263   10.8860    3.8027 C   0  0  0  0  0  0  0  0  0  0  0  0
    1.0020   10.7354    5.3095 C   0  0  0  0  0  0  0  0  0  0  0  0
    2.3944   11.0397    5.6386 N   0  0  0  0  0  0  0  0  0  0  0  0
    3.2985    9.9462    5.7267 C   0  0  0  0  0  0  0  0  0  0  0  0
    2.8789    8.8156    5.7555 O   0  0  0  0  0  0  0  0  0  0  0  0
    4.7384   10.3008    5.7375 C   0  0  0  0  0  0  0  0  0  0  0  0
    5.7280    9.2190    5.5014 C   0  0  0  0  0  0  0  0  0  0  0  0
    5.9070    8.1481    6.3707 C   0  0  0  0  0  0  0  0  0  0  0  0
    5.0735    8.0805    7.8965 Cl  0  0  0  0  0  0  0  0  0  0  0  0
    6.7835    7.0977    6.0355 C   0  0  0  0  0  0  0  0  0  0  0  0
    6.8447    6.0552    6.8767 O   0  0  0  0  0  0  0  0  0  0  0  0
    7.2716    4.8136    6.3661 C   0  0  0  0  0  0  0  0  0  0  0  0
    7.5443    7.1898    4.8741 C   0  0  0  0  0  0  0  0  0  0  0  0
    7.4115    8.2920    4.0293 C   0  0  0  0  0  0  0  0  0  0  0  0
    8.2067    8.2943    2.9277 O   0  0  0  0  0  0  0  0  0  0  0  0
    8.0006    9.2656    1.9262 C   0  0  0  0  0  0  0  0  0  0  0  0
    6.4935    9.2938    4.3254 C   0  0  0  0  0  0  0  0  0  0  0  0
    5.1223   11.5952    5.8256 C   0  0  0  0  0  0  0  0  0  0  0  0
    2.7871   12.3449    5.7376 C   0  0  0  0  0  0  0  0  0  0  0  0
    4.1596   12.6566    5.8714 C   0  0  0  0  0  0  0  0  0  0  0  0
    4.4580   14.0191    5.9762 C   0  0  0  0  0  0  0  0  0  0  0  0
    3.5490   14.9751    5.9519 N   0  0  0  0  0  0  0  0  0  0  0  0
    2.2722   14.5596    5.8045 C   0  0  0  0  0  0  0  0  0  0  0  0
    1.3309   15.5332    5.7675 N   0  0  0  0  0  0  0  0  0  0  0  0
   -0.0683   15.2727    5.5586 C   0  0  0  0  0  0  0  0  0  0  0  0
    1.8560   13.2995    5.6932 N   0  0  0  0  0  0  0  0  0  0  0  0
    2.8573   10.0734    2.7102 C   0  0  0  0  0  0  0  0  0  0  0  0
    3.5918    9.0418    2.1327 C   0  0  0  0  0  0  0  0  0  0  0  0
    2.9824    7.8565    1.7421 C   0  0  0  0  0  0  0  0  0  0  0  0
    2.4213    4.6686    1.0907 C   0  0  0  0  0  3  0  0  0  0  0  0
    2.6585    4.4727    2.4280 C   0  0  0  0  0  3  0  0  0  0  0  0
    4.7517    5.4301    3.5842 S   0  0  0  0  0  1  0  0  0  0  0  0
    6.0392    4.7582    2.4970 C   0  0  0  0  0  0  0  0  0  0  0  0
    6.5003    5.7414    1.4114 C   0  0  2  0  0  0  0  0  0  0  0  0
    6.6762    6.7134    1.8930 H   0  0  0  0  0  0  0  0  0  0  0  0
    5.4823    5.9075    0.4060 N   0  0  0  0  0  0  0  0  0  0  0  0
    5.5165    6.9405   -0.4625 C   0  0  0  0  0  0  0  0  0  0  0  0
    4.3423    7.0502   -1.4126 C   0  0  0  0  0  0  0  0  0  0  0  0
    6.4338    7.7532   -0.4768 O   0  0  0  0  0  0  0  0  0  0  0  0
    7.8156    5.2580    0.7934 C   0  0  0  0  0  0  0  0  0  0  0  0
    8.9157    5.8128    1.3783 N   0  0  0  0  0  0  0  0  0  0  0  0
   10.2516    5.4713    0.9743 C   0  0  0  0  0  0  0  0  0  0  0  0
    7.8711    4.4065   -0.0737 O   0  0  0  0  0  0  0  0  0  0  0  0
    0.0030    6.8796    0.9795 H   0  0  0  0  0  0  0  0  0  0  0  0
   -0.1884    8.5583    2.7310 H   0  0  0  0  0  0  0  0  0  0  0  0
   -0.3569   10.7565    3.6494 H   0  0  0  0  0  0  0  0  0  0  0  0
    0.9704   11.9188    3.5066 H   0  0  0  0  0  0  0  0  0  0  0  0
    0.8237    9.7026    5.6292 H   0  0  0  0  0  0  0  0  0  0  0  0
    0.3614   11.4176    5.8810 H   0  0  0  0  0  0  0  0  0  0  0  0
    7.0649    4.0728    7.1483 H   0  0  0  0  0  0  0  0  0  0  0  0
    8.3557    4.8086    6.1542 H   0  0  0  0  0  0  0  0  0  0  0  0
    6.6964    4.5601    5.4590 H   0  0  0  0  0  0  0  0  0  0  0  0
    8.2198    6.3885    4.5780 H   0  0  0  0  0  0  0  0  0  0  0  0
    8.7199    9.0435    1.1295 H   0  0  0  0  0  0  0  0  0  0  0  0
    8.1805   10.2824    2.3153 H   0  0  0  0  0  0  0  0  0  0  0  0
    6.9946    9.1864    1.4864 H   0  0  0  0  0  0  0  0  0  0  0  0
    6.3192   10.1254    3.6447 H   0  0  0  0  0  0  0  0  0  0  0  0
    6.1869   11.8456    5.8361 H   0  0  0  0  0  0  0  0  0  0  0  0
    5.5048   14.3316    6.0796 H   0  0  0  0  0  0  0  0  0  0  0  0
    1.6837   16.4781    5.8117 H   0  0  0  0  0  0  0  0  0  0  0  0
   -0.2582   14.8008    4.5801 H   0  0  0  0  0  0  0  0  0  0  0  0
   -0.6172   16.2224    5.6043 H   0  0  0  0  0  0  0  0  0  0  0  0
   -0.4682   14.5967    6.3305 H   0  0  0  0  0  0  0  0  0  0  0  0
    3.3499   11.0053    3.0020 H   0  0  0  0  0  0  0  0  0  0  0  0
    4.6673    9.1451    1.9780 H   0  0  0  0  0  0  0  0  0  0  0  0
    3.5826    7.0537    1.3284 H   0  0  0  0  0  0  0  0  0  0  0  0
    2.8203    3.9638    0.3545 H   0  0  0  0  0  0  0  0  0  0  0  0
    3.1225    3.5493    2.7683 H   0  0  0  0  0  0  0  0  0  0  0  0
    2.0890    5.0263    3.1761 H   0  0  0  0  0  0  0  0  0  0  0  0
    5.7153    3.8252    1.9984 H   0  0  0  0  0  0  0  0  0  0  0  0
    6.9289    4.4895    3.0928 H   0  0  0  0  0  0  0  0  0  0  0  0
    4.6582    5.3158    0.4560 H   0  0  0  0  0  0  0  0  0  0  0  0
    3.5970    6.2510   -1.2999 H   0  0  0  0  0  0  0  0  0  0  0  0
    4.7255    7.0555   -2.4428 H   0  0  0  0  0  0  0  0  0  0  0  0
    3.8479    8.0156   -1.2329 H   0  0  0  0  0  0  0  0  0  0  0  0
    8.7701    6.6009    2.0038 H   0  0  0  0  0  0  0  0  0  0  0  0
   10.8753    5.1852    1.8373 H   0  0  0  0  0  0  0  0  0  0  0  0
   10.7508    6.3028    0.4474 H   0  0  0  0  0  0  0  0  0  0  0  0
   10.1837    4.6191    0.2851 H   0  0  0  0  0  0  0  0  0  0  0  0
  1  2  2  0  0  0  0
  2 36  1  0  0  0  0
  2  3  1  0  0  0  0
  3  4  1  0  0  0  0
  4  5  1  0  0  0  0
  5 51  1  0  0  0  0
  5  6  2  0  0  0  0
  6  7  1  0  0  0  0
  7  8  1  0  0  0  0
  8 54  1  0  0  0  0
  8  9  1  0  0  0  0
  8 55  1  0  0  0  0
  9 10  1  0  0  0  0
  9 25  1  0  0  0  0
 10 12  1  0  0  0  0
 10 11  2  0  0  0  0
 12 24  2  0  0  0  0
 13 12  1  0  0  0  0
 13 14  1  0  0  0  0
 14 15  1  0  0  0  0
 16 14  2  0  0  0  0
 16 17  1  0  0  0  0
 18 17  1  0  0  0  0
 18 56  1  0  0  0  0
 19 16  1  0  0  0  0
 20 23  1  0  0  0  0
 20 19  2  0  0  0  0
 21 20  1  0  0  0  0
 22 61  1  0  0  0  0
 22 21  1  0  0  0  0
 23 13  2  0  0  0  0
 24 64  1  0  0  0  0
 24 26  1  0  0  0  0
 25 26  1  0  0  0  0
 26 27  2  0  0  0  0
 27 65  1  0  0  0  0
 28 27  1  0  0  0  0
 29 28  2  0  0  0  0
 30 29  1  0  0  0  0
 30 66  1  0  0  0  0
 31 68  1  0  0  0  0
 31 30  1  0  0  0  0
 31 69  1  0  0  0  0
 32 25  2  0  0  0  0
 32 29  1  0  0  0  0
 33  6  1  0  0  0  0
 33 70  1  0  0  0  0
 34 33  2  0  0  0  0
 35  4  2  0  0  0  0
 35 34  1  0  0  0  0
 36 37  1  0  0  0  0
 37 74  1  0  0  0  0
 37 75  1  0  0  0  0
 39 77  1  0  0  0  0
 39 38  1  0  0  0  0
 40 41  1  1  0  0  0
 40 39  1  0  0  0  0
 42 78  1  0  0  0  0
 42 40  1  0  0  0  0
 43 42  1  0  0  0  0
 44 79  1  0  0  0  0
 44 81  1  0  0  0  0
 44 43  1  0  0  0  0
 45 43  2  0  0  0  0
 46 47  1  0  0  0  0
 46 40  1  0  0  0  0
 47 82  1  0  0  0  0
 48 47  1  0  0  0  0
 48 83  1  0  0  0  0
 49 46  2  0  0  0  0
 50  3  1  0  0  0  0
 52  7  1  0  0  0  0
 53  7  1  0  0  0  0
 57 18  1  0  0  0  0
 58 18  1  0  0  0  0
 59 19  1  0  0  0  0
 60 22  1  0  0  0  0
 62 22  1  0  0  0  0
 63 23  1  0  0  0  0
 67 31  1  0  0  0  0
 71 34  1  0  0  0  0
 72 35  1  0  0  0  0
 73 36  1  0  0  0  0
 76 39  1  0  0  0  0
 80 44  1  0  0  0  0
 84 48  1  0  0  0  0
 85 48  1  0  0  0  0
M  END
