85
-1 1
O        -0.407802   -0.873848   -3.557970
C        -1.217484   -1.593079   -2.887850
N        -1.801629   -1.025860   -1.718508
C        -2.102521    0.288899   -1.451953
C        -2.954889    0.574267   -0.364084
C        -3.321566    1.876123   -0.030807
C        -4.182726    2.143990    1.184294
C        -3.416890    1.960876    2.510719
N        -2.032933    2.411930    2.393458
C        -1.053173    1.411381    2.195231
O        -1.322928    0.244092    2.373270
C         0.268067    1.879446    1.736006
C         1.259452    0.848505    1.339077
C         1.869590    0.015215    2.272513
Cl         1.536017    0.178770    3.974601
C         2.789360   -0.966566    1.854257
O         3.302128   -1.776922    2.793761
C         4.087960   -2.871108    2.387031
C         3.130997   -1.041389    0.508612
C         2.536980   -0.190348   -0.431939
O         2.956580   -0.339396   -1.703452
C         2.328431    0.413700   -2.721749
C         1.580046    0.737342   -0.022964
C         0.521208    3.200158    1.594218
C        -1.770891    3.747351    2.271681
C        -0.481206    4.179511    1.891128
C        -0.321775    5.564619    1.783041
N        -1.285618    6.434995    2.015609
C        -2.476438    5.905140    2.369521
N        -3.472148    6.793095    2.611595
C        -4.827434    6.401754    2.893035
N        -2.760044    4.611280    2.503165
C        -2.822809    2.942116   -0.788754
C        -1.983675    2.674359   -1.871394
C        -1.623135    1.376634   -2.215347
C        -1.521554   -2.913311   -3.166063
C        -2.172801   -3.866964   -2.244683
S        -1.132981   -4.403004   -0.767686
C         0.483018   -4.765455   -1.522531
C         1.489147   -3.601290   -1.643912
H         1.200322   -2.825567   -0.914075
N         1.538029   -2.943996   -2.933872
C         1.873959   -3.625318   -4.062393
C         1.660100   -2.839152   -5.341992
O         2.345454   -4.751239   -4.048108
C         2.892870   -4.046952   -1.183306
N         3.911648   -3.315716   -1.693605
C         5.287911   -3.561031   -1.371183
O         3.059250   -4.930568   -0.356314
H        -2.208797   -1.693325   -1.077445
H        -3.324264   -0.257094    0.243764
H        -5.053534    1.469170    1.200319
H        -4.566470    3.172988    1.133866
H        -3.356659    0.902993    2.787130
H        -3.906693    2.518967    3.318834
H         4.313107   -3.441346    3.296268
H         5.037981   -2.539492    1.931661
H         3.556972   -3.521956    1.671701
H         3.843735   -1.776323    0.147443
H         2.823402    0.127705   -3.658277
H         2.472273    1.496059   -2.556663
H         1.255206    0.168298   -2.807690
H         1.040547    1.359614   -0.736473
H         1.500613    3.531590    1.238311
H         0.651893    5.970273    1.480841
H        -3.241269    7.757879    2.423508
H        -5.302602    5.892672    2.036712
H        -5.413129    7.297286    3.139199
H        -4.865771    5.709733    3.747500
H        -3.092565    3.969964   -0.531331
H        -1.601019    3.503647   -2.473446
H        -0.989599    1.158239   -3.073069
H        -1.005237   -3.338320   -4.028522
H        -2.458971   -4.790763   -2.767589
H        -3.087840   -3.489297   -1.753221
H         0.335602   -5.237269   -2.503169
H         0.932152   -5.518571   -0.862263
H         0.943894   -2.116696   -3.074376
H         0.921476   -2.035693   -5.200163
H         1.334200   -3.532564   -6.128325
H         2.621269   -2.402848   -5.657589
H         3.656331   -2.543922   -2.299212
H         5.754301   -2.690895   -0.875793
H         5.876066   -3.800834   -2.271696
H         5.324831   -4.419221   -0.687434
