85
-1 1
O        -3.145424   -3.597991   -2.785296
C        -2.563111   -2.686028   -2.225128
N        -3.056737   -1.400763   -2.374152
C        -2.551776   -0.138518   -2.001334
C        -3.409634    0.747535   -1.346452
C        -2.995332    2.027388   -0.974865
C        -3.890932    2.892602   -0.122038
C        -3.790601    2.531583    1.369747
N        -2.411699    2.616927    1.845637
C        -1.646982    1.426143    1.828593
O        -2.184473    0.363646    1.606577
C        -0.197301    1.580235    2.055096
C         0.673615    0.407143    1.788034
C         0.709872   -0.716875    2.605816
Cl        -0.255387   -0.792002    4.052921
C         1.537584   -1.815521    2.282191
O         1.479921   -2.877077    3.085844
C         2.182916   -4.054096    2.723827
C         2.355470   -1.736906    1.153881
C         2.342405   -0.592637    0.352338
O         3.190471   -0.581922   -0.701823
C         2.933790    0.295507   -1.778763
C         1.492441    0.467955    0.652135
C         0.322845    2.789678    2.366627
C        -1.884991    3.839833    2.162530
C        -0.509685    3.952293    2.463453
C        -0.071156    5.242529    2.784996
N        -0.858553    6.299528    2.811139
C        -2.152060    6.073154    2.492676
N        -2.965628    7.154648    2.508024
C        -4.362319    7.101072    2.167112
N        -2.693698    4.900091    2.167697
C        -1.691030    2.421667   -1.283871
C        -0.830389    1.540933   -1.942097
C        -1.245318    0.264605   -2.308216
C        -1.381069   -2.948526   -1.364898
C        -1.025212   -2.283612   -0.263111
S         1.383641   -5.405431   -0.638839
C         2.868384   -4.735658   -1.453703
C         2.594766   -3.484326   -2.318536
H         2.352972   -2.640430   -1.652383
N         1.480133   -3.720762   -3.193664
C         0.853959   -2.711898   -3.823736
C        -0.352621   -3.103364   -4.651116
O         1.247413   -1.547219   -3.776955
C         3.856842   -3.147222   -3.117307
N         4.744548   -2.378909   -2.417749
C         6.025190   -2.005532   -2.949050
O         4.089601   -3.583928   -4.227768
H        -3.962633   -1.407223   -2.829882
H        -4.412732    0.402570   -1.080016
H        -4.943690    2.777660   -0.425760
H        -3.631021    3.955522   -0.243632
H        -4.114294    1.498251    1.538465
H        -4.403818    3.215123    1.968577
H         1.917049   -4.804222    3.477451
H         3.273189   -3.882769    2.758735
H         1.886033   -4.420842    1.720431
H         2.974261   -2.580603    0.852090
H         3.651490    0.031606   -2.563856
H         3.080379    1.348712   -1.483202
H         1.926001    0.128662   -2.186013
H         1.428795    1.345312    0.012014
H         1.399803    2.892095    2.526182
H         0.986508    5.404091    3.027938
H        -2.518365    8.030232    2.737580
H        -4.517637    6.769954    1.127100
H        -4.795351    8.102701    2.285479
H        -4.908507    6.401338    2.819268
H        -1.342488    3.418361   -0.997182
H         0.185130    1.858121   -2.190386
H        -0.559003   -0.409001   -2.829524
H        -0.840557   -3.870758   -1.606215
H        -0.185891   -2.679552    0.316178
H        -1.528745   -1.388896    0.114052
H         3.330099   -5.498517   -2.103907
H         3.640855   -4.448910   -0.718415
H         0.987922   -4.595818   -3.007543
H        -0.876661   -3.985663   -4.259429
H        -0.015004   -3.319399   -5.676521
H        -1.051378   -2.258029   -4.692551
H         4.419633   -1.958702   -1.553139
H         6.848706   -2.301512   -2.277842
H         6.100851   -0.918093   -3.127014
H         6.147366   -2.522153   -3.910320
