-1 1
 OpenBabel05192410563D

 93 96  0  0  1  0  0  0  0  0999 V2000
    1.9304    0.7457   -2.9098 O   0  0  0  0  0  0  0  0  0  0  0  0
    1.3015    1.8110   -2.7709 C   0  0  0  0  0  0  0  0  0  0  0  0
   -0.1441    1.7544   -2.8941 N   0  0  0  0  0  0  0  0  0  0  0  0
   -0.8338    2.0585   -1.6429 C   0  0  0  0  0  0  0  0  0  0  0  0
   -2.3497    1.9958   -1.7855 C   0  0  0  0  0  0  0  0  0  0  0  0
   -2.8419    0.6713   -2.3706 C   0  0  1  0  0  0  0  0  0  0  0  0
   -2.1023    0.4966   -3.7094 C   0  0  0  0  0  0  0  0  0  0  0  0
   -0.5948    0.5065   -3.5004 C   0  0  0  0  0  0  0  0  0  0  0  0
   -2.6311   -0.5031   -1.5225 N   0  0  0  0  0  0  0  0  0  0  0  0
   -2.3058   -0.4190   -0.1179 C   0  0  0  0  0  0  0  0  0  0  0  0
   -1.0121   -1.1891    0.1781 C   0  0  0  0  0  0  0  0  0  0  0  0
   -0.6256   -1.0984    1.5864 N   0  0  0  0  0  0  0  0  0  0  0  0
   -1.2036   -2.0171    2.4686 C   0  0  0  0  0  0  0  0  0  0  0  0
   -1.9924   -2.8558    2.0661 O   0  0  0  0  0  0  0  0  0  0  0  0
   -0.8070   -1.9097    3.8808 C   0  0  0  0  0  0  0  0  0  0  0  0
   -1.4076   -2.9054    4.8038 C   0  0  0  0  0  0  0  0  0  0  0  0
   -2.4749   -2.5720    5.6406 C   0  0  0  0  0  0  0  0  0  0  0  0
   -3.1447   -0.9669    5.6150 Cl  0  0  0  0  0  0  0  0  0  0  0  0
   -3.0575   -3.5164    6.5068 C   0  0  0  0  0  0  0  0  0  0  0  0
   -4.0735   -3.0965    7.2804 O   0  0  0  0  0  0  0  0  0  0  0  0
   -4.6979   -4.0103    8.1386 C   0  0  0  0  0  0  0  0  0  0  0  0
   -2.5608   -4.8182    6.5094 C   0  0  0  0  0  0  0  0  0  0  0  0
   -1.5009   -5.1800    5.6756 C   0  0  0  0  0  0  0  0  0  0  0  0
   -1.0386   -6.4553    5.7298 O   0  0  0  0  0  0  0  0  0  0  0  0
   -1.5256   -7.3117    4.7162 C   0  0  0  0  0  0  0  0  0  0  0  0
   -0.9239   -4.2237    4.8397 C   0  0  0  0  0  0  0  0  0  0  0  0
    0.4280   -4.6770    3.8438 Cl  0  0  0  0  0  0  0  0  0  0  0  0
    0.0466   -0.9422    4.2950 C   0  0  0  0  0  0  0  0  0  0  0  0
    0.2367   -0.1020    1.9950 C   0  0  0  0  0  0  0  0  0  0  0  0
    0.5915   -0.0106    3.3647 C   0  0  0  0  0  0  0  0  0  0  0  0
    1.4714    1.0372    3.6784 C   0  0  0  0  0  0  0  0  0  0  0  0
    1.9509    1.8820    2.7965 N   0  0  0  0  0  0  0  0  0  0  0  0
    1.5504    1.7002    1.5064 C   0  0  0  0  0  0  0  0  0  0  0  0
    2.0288    2.5477    0.5931 N   0  0  0  0  0  0  0  0  0  0  0  0
    2.9463    3.6120    0.9041 C   0  0  0  0  0  0  0  0  0  0  0  0
    0.7075    0.7381    1.0926 N   0  0  0  0  0  0  0  0  0  0  0  0
   -3.4745   -1.6201   -1.8550 C   0  0  0  0  0  0  0  0  0  0  0  0
    1.8874    3.0653   -2.4959 C   0  0  0  0  0  3  0  0  0  0  0  0
    1.2492    4.3913   -2.6689 C   0  0  0  0  0  0  0  0  0  0  0  0
    1.4670    5.2583   -4.3268 S   0  0  0  0  0  0  0  0  0  0  0  0
    0.7099    4.0384   -5.4543 C   0  0  0  0  0  0  0  0  0  0  0  0
    1.7010    3.3080   -6.3670 C   0  0  2  0  0  0  0  0  0  0  0  0
    1.1285    2.6211   -7.0125 H   0  0  0  0  0  0  0  0  0  0  0  0
    2.6593    2.5516   -5.5993 N   0  0  0  0  0  0  0  0  0  0  0  0
    3.2790    1.4555   -6.1341 C   0  0  0  0  0  0  0  0  0  0  0  0
    4.1361    0.6862   -5.1545 C   0  0  0  0  0  0  0  0  0  0  0  0
    3.1656    1.1592   -7.3109 O   0  0  0  0  0  0  0  0  0  0  0  0
    2.3293    4.3084   -7.3482 C   0  0  0  0  0  0  0  0  0  0  0  0
    3.6357    4.5845   -7.1304 N   0  0  0  0  0  0  0  0  0  0  0  0
    4.3731    5.5413   -7.9054 C   0  0  0  0  0  0  0  0  0  0  0  0
    1.6586    4.8250   -8.2259 O   0  0  0  0  0  0  0  0  0  0  0  0
   -0.5556    3.0660   -1.3068 H   0  0  0  0  0  0  0  0  0  0  0  0
   -0.4952    1.3764   -0.8440 H   0  0  0  0  0  0  0  0  0  0  0  0
   -2.6729    2.7875   -2.4809 H   0  0  0  0  0  0  0  0  0  0  0  0
   -2.8279    2.2204   -0.8192 H   0  0  0  0  0  0  0  0  0  0  0  0
   -3.9303    0.7797   -2.5728 H   0  0  0  0  0  0  0  0  0  0  0  0
   -2.3981    1.3125   -4.3905 H   0  0  0  0  0  0  0  0  0  0  0  0
   -2.3932   -0.4475   -4.1962 H   0  0  0  0  0  0  0  0  0  0  0  0
   -0.0722    0.3869   -4.4599 H   0  0  0  0  0  0  0  0  0  0  0  0
   -0.3124   -0.3676   -2.8860 H   0  0  0  0  0  0  0  0  0  0  0  0
   -3.1188   -0.8257    0.5147 H   0  0  0  0  0  0  0  0  0  0  0  0
   -2.1623    0.6204    0.1986 H   0  0  0  0  0  0  0  0  0  0  0  0
   -0.1939   -0.7825   -0.4268 H   0  0  0  0  0  0  0  0  0  0  0  0
   -1.1449   -2.2523   -0.0549 H   0  0  0  0  0  0  0  0  0  0  0  0
   -5.4907   -3.4583    8.6574 H   0  0  0  0  0  0  0  0  0  0  0  0
   -3.9944   -4.4153    8.8867 H   0  0  0  0  0  0  0  0  0  0  0  0
   -5.1507   -4.8490    7.5818 H   0  0  0  0  0  0  0  0  0  0  0  0
   -2.9725   -5.5912    7.1567 H   0  0  0  0  0  0  0  0  0  0  0  0
   -1.0546   -8.2904    4.8711 H   0  0  0  0  0  0  0  0  0  0  0  0
   -1.2661   -6.9412    3.7114 H   0  0  0  0  0  0  0  0  0  0  0  0
   -2.6222   -7.4202    4.7865 H   0  0  0  0  0  0  0  0  0  0  0  0
    0.3225   -0.8653    5.3509 H   0  0  0  0  0  0  0  0  0  0  0  0
    1.7876    1.1730    4.7216 H   0  0  0  0  0  0  0  0  0  0  0  0
    1.7777    2.4408   -0.4036 H   0  0  0  0  0  0  0  0  0  0  0  0
    3.8807    3.2314    1.3463 H   0  0  0  0  0  0  0  0  0  0  0  0
    2.5124    4.3325    1.6154 H   0  0  0  0  0  0  0  0  0  0  0  0
    3.1791    4.1284   -0.0364 H   0  0  0  0  0  0  0  0  0  0  0  0
   -3.4213   -1.8516   -2.9298 H   0  0  0  0  0  0  0  0  0  0  0  0
   -4.5467   -1.4468   -1.6031 H   0  0  0  0  0  0  0  0  0  0  0  0
   -3.1507   -2.5218   -1.3134 H   0  0  0  0  0  0  0  0  0  0  0  0
    2.9797    3.0428   -2.4009 H   0  0  0  0  0  0  0  0  0  0  0  0
    1.6533    5.1540   -1.9824 H   0  0  0  0  0  0  0  0  0  0  0  0
    0.1626    4.3698   -2.5194 H   0  0  0  0  0  0  0  0  0  0  0  0
   -0.0128    4.5647   -6.0919 H   0  0  0  0  0  0  0  0  0  0  0  0
    0.1679    3.3080   -4.8325 H   0  0  0  0  0  0  0  0  0  0  0  0
    2.6105    2.6451   -4.5808 H   0  0  0  0  0  0  0  0  0  0  0  0
    5.0305    1.2781   -4.9023 H   0  0  0  0  0  0  0  0  0  0  0  0
    4.4506   -0.2549   -5.6212 H   0  0  0  0  0  0  0  0  0  0  0  0
    3.5687    0.5046   -4.2254 H   0  0  0  0  0  0  0  0  0  0  0  0
    4.0580    4.1286   -6.3312 H   0  0  0  0  0  0  0  0  0  0  0  0
    5.2702    5.0890   -8.3589 H   0  0  0  0  0  0  0  0  0  0  0  0
    4.6848    6.4063   -7.2966 H   0  0  0  0  0  0  0  0  0  0  0  0
    3.7127    5.8978   -8.7068 H   0  0  0  0  0  0  0  0  0  0  0  0
  1  2  2  0  0  0  0
  2 38  1  0  0  0  0
  3  2  1  0  0  0  0
  3  4  1  0  0  0  0
  4 52  1  0  0  0  0
  4 53  1  0  0  0  0
  5  4  1  0  0  0  0
  5 55  1  0  0  0  0
  6 56  1  6  0  0  0
  6  5  1  0  0  0  0
  6  9  1  0  0  0  0
  7  8  1  0  0  0  0
  7  6  1  0  0  0  0
  8  3  1  0  0  0  0
  8 60  1  0  0  0  0
  9 10  1  0  0  0  0
 10 11  1  0  0  0  0
 10 62  1  0  0  0  0
 10 61  1  0  0  0  0
 11 12  1  0  0  0  0
 12 29  1  0  0  0  0
 12 13  1  0  0  0  0
 13 15  1  0  0  0  0
 14 13  2  0  0  0  0
 15 28  2  0  0  0  0
 15 16  1  0  0  0  0
 16 26  2  0  0  0  0
 16 17  1  0  0  0  0
 17 19  2  0  0  0  0
 18 17  1  0  0  0  0
 19 22  1  0  0  0  0
 19 20  1  0  0  0  0
 20 21  1  0  0  0  0
 21 65  1  0  0  0  0
 21 66  1  0  0  0  0
 22 68  1  0  0  0  0
 23 24  1  0  0  0  0
 23 22  2  0  0  0  0
 25 71  1  0  0  0  0
 25 69  1  0  0  0  0
 25 24  1  0  0  0  0
 26 23  1  0  0  0  0
 27 26  1  0  0  0  0
 28 72  1  0  0  0  0
 29 30  1  0  0  0  0
 30 31  2  0  0  0  0
 30 28  1  0  0  0  0
 31 73  1  0  0  0  0
 32 31  1  0  0  0  0
 33 32  2  0  0  0  0
 34 35  1  0  0  0  0
 34 33  1  0  0  0  0
 35 75  1  0  0  0  0
 35 76  1  0  0  0  0
 36 33  1  0  0  0  0
 36 29  2  0  0  0  0
 37 79  1  0  0  0  0
 37  9  1  0  0  0  0
 37 80  1  0  0  0  0
 38 81  1  0  0  0  0
 39 83  1  0  0  0  0
 39 38  1  0  0  0  0
 39 82  1  0  0  0  0
 40 39  1  0  0  0  0
 41 85  1  0  0  0  0
 41 40  1  0  0  0  0
 42 43  1  6  0  0  0
 42 44  1  0  0  0  0
 42 41  1  0  0  0  0
 44 86  1  0  0  0  0
 45 44  1  0  0  0  0
 45 46  1  0  0  0  0
 46 87  1  0  0  0  0
 46 89  1  0  0  0  0
 47 45  2  0  0  0  0
 48 49  1  0  0  0  0
 48 42  1  0  0  0  0
 49 90  1  0  0  0  0
 50 92  1  0  0  0  0
 50 49  1  0  0  0  0
 51 48  2  0  0  0  0
 54  5  1  0  0  0  0
 57  7  1  0  0  0  0
 58  7  1  0  0  0  0
 59  8  1  0  0  0  0
 63 11  1  0  0  0  0
 64 11  1  0  0  0  0
 67 21  1  0  0  0  0
 70 25  1  0  0  0  0
 74 34  1  0  0  0  0
 77 35  1  0  0  0  0
 78 37  1  0  0  0  0
 84 41  1  0  0  0  0
 88 46  1  0  0  0  0
 91 50  1  0  0  0  0
 93 50  1  0  0  0  0
M  END
