-1 1
 OpenBabel05232414493D

 83 85  0  0  1  0  0  0  0  0999 V2000
    6.4232  -14.1964    4.9397 O   0  0  0  0  0  0  0  0  0  0  0  0
    6.4635  -13.0074    5.3130 C   0  0  0  0  0  0  0  0  0  0  0  0
    5.2554  -12.3520    5.4626 N   0  0  0  0  0  0  0  0  0  0  0  0
    3.9542  -12.9493    5.2368 C   0  0  0  0  0  0  0  0  0  0  0  0
    3.3632  -11.5353    5.0774 C   0  0  0  0  0  0  0  0  0  0  0  0
    4.8043  -10.9879    5.2428 C   0  0  0  0  0  0  0  0  0  0  0  0
    2.7655  -11.3884    3.8220 O   0  0  0  0  0  0  0  0  0  0  0  0
    2.5690  -10.1027    3.3077 C   0  0  0  0  0  0  0  0  0  0  0  0
    2.9010  -10.1378    1.8102 C   0  0  0  0  0  0  0  0  0  0  0  0
    2.3170  -11.3380    1.2164 N   0  0  0  0  0  0  0  0  0  0  0  0
    0.9533  -11.2861    0.9084 C   0  0  0  0  0  0  0  0  0  0  0  0
    0.3632  -10.2188    0.8827 O   0  0  0  0  0  0  0  0  0  0  0  0
    0.2895  -12.5739    0.6716 C   0  0  0  0  0  0  0  0  0  0  0  0
   -1.1716  -12.5190    0.4115 C   0  0  0  0  0  0  0  0  0  0  0  0
   -1.6851  -12.5915   -0.8870 C   0  0  0  0  0  0  0  0  0  0  0  0
   -0.6121  -12.7330   -2.2495 Cl  0  0  0  0  0  0  0  0  0  0  0  0
   -3.0654  -12.5299   -1.1251 C   0  0  0  0  0  0  0  0  0  0  0  0
   -3.4733  -12.6065   -2.4055 O   0  0  0  0  0  0  0  0  0  0  0  0
   -4.8385  -12.5236   -2.6989 C   0  0  0  0  0  0  0  0  0  0  0  0
   -3.9400  -12.3933   -0.0436 C   0  0  0  0  0  0  0  0  0  0  0  0
   -3.4475  -12.3146    1.2630 C   0  0  0  0  0  0  0  0  0  0  0  0
   -4.2340  -12.1814    2.3453 O   0  0  0  0  0  0  0  0  0  0  0  0
   -5.6204  -12.0888    2.1847 C   0  0  0  0  0  0  0  0  0  0  0  0
   -2.0647  -12.3805    1.4801 C   0  0  0  0  0  0  0  0  0  0  0  0
   -1.4666  -12.2772    3.1066 Cl  0  0  0  0  0  0  0  0  0  0  0  0
    0.9661  -13.7413    0.7972 C   0  0  0  0  0  0  0  0  0  0  0  0
    3.0299  -12.5166    1.2829 C   0  0  0  0  0  0  0  0  0  0  0  0
    2.3556  -13.7438    1.1124 C   0  0  0  0  0  0  0  0  0  0  0  0
    3.1320  -14.8880    1.3782 C   0  0  0  0  0  0  0  0  0  0  0  0
    4.3920  -14.8484    1.7291 N   0  0  0  0  0  0  0  0  0  0  0  0
    4.9607  -13.6123    1.7746 C   0  0  0  0  0  0  0  0  0  0  0  0
    6.2699  -13.5695    2.0865 N   0  0  0  0  0  0  0  0  0  0  0  0
    6.9621  -12.3114    2.2214 C   0  0  0  0  0  0  0  0  0  0  0  0
    4.3295  -12.4604    1.5389 N   0  0  0  0  0  0  0  0  0  0  0  0
    7.6960  -12.3262    5.6097 C   0  0  0  0  0  3  0  0  0  0  0  0
    7.8744  -11.1006    6.2513 C   0  0  0  0  0  3  0  0  0  0  0  0
    7.9456  -11.0681    8.6023 S   0  0  0  0  0  1  0  0  0  0  0  0
    6.1518  -11.0305    8.8809 C   0  0  0  0  0  0  0  0  0  0  0  0
    5.4542  -12.3921    9.0687 C   0  0  2  0  0  0  0  0  0  0  0  0
    5.4800  -12.6856   10.1338 H   0  0  0  0  0  0  0  0  0  0  0  0
    6.1258  -13.4318    8.3127 N   0  0  0  0  0  0  0  0  0  0  0  0
    6.0626  -14.7487    8.5840 C   0  0  0  0  0  0  0  0  0  0  0  0
    7.0597  -15.5965    7.8300 C   0  0  0  0  0  0  0  0  0  0  0  0
    5.2494  -15.2336    9.3751 O   0  0  0  0  0  0  0  0  0  0  0  0
    3.9584  -12.2749    8.6814 C   0  0  0  0  0  0  0  0  0  0  0  0
    3.2371  -13.3926    8.9101 N   0  0  0  0  0  0  0  0  0  0  0  0
    1.8440  -13.4674    8.5581 C   0  0  0  0  0  0  0  0  0  0  0  0
    3.4632  -11.2493    8.2338 O   0  0  0  0  0  0  0  0  0  0  0  0
    3.5849  -13.5448    6.0877 H   0  0  0  0  0  0  0  0  0  0  0  0
    3.8824  -13.5511    4.3165 H   0  0  0  0  0  0  0  0  0  0  0  0
    2.6946  -11.2234    5.8955 H   0  0  0  0  0  0  0  0  0  0  0  0
    4.9321  -10.3078    6.0998 H   0  0  0  0  0  0  0  0  0  0  0  0
    5.2203  -10.5179    4.3324 H   0  0  0  0  0  0  0  0  0  0  0  0
    3.2178   -9.3547    3.7982 H   0  0  0  0  0  0  0  0  0  0  0  0
    1.5197   -9.7881    3.4536 H   0  0  0  0  0  0  0  0  0  0  0  0
    3.9837  -10.1926    1.6592 H   0  0  0  0  0  0  0  0  0  0  0  0
    2.4851   -9.2607    1.3016 H   0  0  0  0  0  0  0  0  0  0  0  0
   -4.9277  -12.5960   -3.7895 H   0  0  0  0  0  0  0  0  0  0  0  0
   -5.2712  -11.5629   -2.3690 H   0  0  0  0  0  0  0  0  0  0  0  0
   -5.4086  -13.3506   -2.2398 H   0  0  0  0  0  0  0  0  0  0  0  0
   -5.0115  -12.3447   -0.2194 H   0  0  0  0  0  0  0  0  0  0  0  0
   -6.0431  -11.9755    3.1901 H   0  0  0  0  0  0  0  0  0  0  0  0
   -6.0421  -12.9985    1.7219 H   0  0  0  0  0  0  0  0  0  0  0  0
   -5.9049  -11.2114    1.5777 H   0  0  0  0  0  0  0  0  0  0  0  0
    0.4442  -14.6953    0.6772 H   0  0  0  0  0  0  0  0  0  0  0  0
    2.6621  -15.8785    1.3126 H   0  0  0  0  0  0  0  0  0  0  0  0
    6.5614  -14.3184    2.7133 H   0  0  0  0  0  0  0  0  0  0  0  0
    7.0050  -11.7918    1.2521 H   0  0  0  0  0  0  0  0  0  0  0  0
    7.9802  -12.5069    2.5771 H   0  0  0  0  0  0  0  0  0  0  0  0
    6.4763  -11.6416    2.9468 H   0  0  0  0  0  0  0  0  0  0  0  0
    8.5749  -12.9473    5.4155 H   0  0  0  0  0  0  0  0  0  0  0  0
    7.0713  -10.3615    6.2776 H   0  0  0  0  0  0  0  0  0  0  0  0
    8.8689  -10.6522    6.2113 H   0  0  0  0  0  0  0  0  0  0  0  0
    5.6693  -10.5207    8.0353 H   0  0  0  0  0  0  0  0  0  0  0  0
    5.9260  -10.4116    9.7611 H   0  0  0  0  0  0  0  0  0  0  0  0
    6.9119  -13.1005    7.7512 H   0  0  0  0  0  0  0  0  0  0  0  0
    8.0832  -15.3327    8.1378 H   0  0  0  0  0  0  0  0  0  0  0  0
    6.9692  -15.4019    6.7484 H   0  0  0  0  0  0  0  0  0  0  0  0
    6.8683  -16.6528    8.0520 H   0  0  0  0  0  0  0  0  0  0  0  0
    3.7565  -14.2236    9.2189 H   0  0  0  0  0  0  0  0  0  0  0  0
    1.3230  -12.5498    8.8689 H   0  0  0  0  0  0  0  0  0  0  0  0
    1.3861  -14.3295    9.0619 H   0  0  0  0  0  0  0  0  0  0  0  0
    1.6901  -13.5787    7.4698 H   0  0  0  0  0  0  0  0  0  0  0  0
  1  2  2  0  0  0  0
  2  3  1  0  0  0  0
  2 35  1  0  0  0  0
  4  3  1  0  0  0  0
  4 49  1  0  0  0  0
  5  4  1  0  0  0  0
  5  6  1  0  0  0  0
  5 51  1  0  0  0  0
  6  3  1  0  0  0  0
  6 52  1  0  0  0  0
  7  5  1  0  0  0  0
  8 55  1  0  0  0  0
  8 54  1  0  0  0  0
  8  7  1  0  0  0  0
  9  8  1  0  0  0  0
 10 27  1  0  0  0  0
 10  9  1  0  0  0  0
 11 10  1  0  0  0  0
 12 11  2  0  0  0  0
 13 26  2  0  0  0  0
 13 11  1  0  0  0  0
 14 13  1  0  0  0  0
 14 24  1  0  0  0  0
 15 14  2  0  0  0  0
 16 15  1  0  0  0  0
 17 15  1  0  0  0  0
 17 20  2  0  0  0  0
 18 17  1  0  0  0  0
 19 18  1  0  0  0  0
 19 59  1  0  0  0  0
 19 60  1  0  0  0  0
 20 21  1  0  0  0  0
 21 24  2  0  0  0  0
 21 22  1  0  0  0  0
 23 22  1  0  0  0  0
 23 62  1  0  0  0  0
 24 25  1  0  0  0  0
 26 28  1  0  0  0  0
 27 34  2  0  0  0  0
 28 27  1  0  0  0  0
 28 29  2  0  0  0  0
 29 30  1  0  0  0  0
 30 31  2  0  0  0  0
 31 32  1  0  0  0  0
 32 33  1  0  0  0  0
 32 67  1  0  0  0  0
 33 69  1  0  0  0  0
 33 70  1  0  0  0  0
 34 31  1  0  0  0  0
 35 36  1  0  0  0  0
 36 72  1  0  0  0  0
 37 38  1  0  0  0  0
 38 39  1  0  0  0  0
 38 75  1  0  0  0  0
 39 40  1  1  0  0  0
 41 42  1  0  0  0  0
 41 39  1  0  0  0  0
 42 44  2  0  0  0  0
 43 79  1  0  0  0  0
 43 77  1  0  0  0  0
 43 42  1  0  0  0  0
 45 46  1  0  0  0  0
 45 39  1  0  0  0  0
 46 80  1  0  0  0  0
 47 81  1  0  0  0  0
 47 46  1  0  0  0  0
 47 82  1  0  0  0  0
 48 45  2  0  0  0  0
 50  4  1  0  0  0  0
 53  6  1  0  0  0  0
 56  9  1  0  0  0  0
 57  9  1  0  0  0  0
 58 19  1  0  0  0  0
 61 20  1  0  0  0  0
 63 23  1  0  0  0  0
 64 23  1  0  0  0  0
 65 26  1  0  0  0  0
 66 29  1  0  0  0  0
 68 33  1  0  0  0  0
 71 35  1  0  0  0  0
 73 36  1  0  0  0  0
 74 38  1  0  0  0  0
 76 41  1  0  0  0  0
 78 43  1  0  0  0  0
 83 47  1  0  0  0  0
M  END
