-1 1
 OpenBabel05192410563D

 83 86  0  0  1  0  0  0  0  0999 V2000
    3.8653   -1.6495    1.3652 O   0  0  0  0  0  0  0  0  0  0  0  0
    3.9867   -0.4675    1.7932 C   0  0  0  0  0  0  0  0  0  0  0  0
    2.7762    0.2472    1.9942 N   0  0  0  0  0  0  0  0  0  0  0  0
    1.4683   -0.3390    1.7502 C   0  0  0  0  0  0  0  0  0  0  0  0
    0.9116    1.0774    1.5375 C   0  0  1  0  0  0  0  0  0  0  0  0
    2.3787    1.5635    1.5174 C   0  0  0  0  0  0  0  0  0  0  0  0
    0.1599    1.2015    0.3631 O   0  0  0  0  0  0  0  0  0  0  0  0
    0.0394    2.4709   -0.2163 C   0  0  0  0  0  0  0  0  0  0  0  0
    0.4716    2.3977   -1.6886 C   0  0  0  0  0  0  0  0  0  0  0  0
   -0.0988    1.1953   -2.2892 N   0  0  0  0  0  0  0  0  0  0  0  0
   -1.4523    1.2515   -2.6360 C   0  0  0  0  0  0  0  0  0  0  0  0
   -2.0300    2.3244   -2.7078 O   0  0  0  0  0  0  0  0  0  0  0  0
   -2.1235   -0.0352   -2.8509 C   0  0  0  0  0  0  0  0  0  0  0  0
   -3.5769    0.0254   -3.1497 C   0  0  0  0  0  0  0  0  0  0  0  0
   -4.0595   -0.0961   -4.4565 C   0  0  0  0  0  0  0  0  0  0  0  0
   -2.9554   -0.3043   -5.7854 Cl  0  0  0  0  0  0  0  0  0  0  0  0
   -5.4325   -0.0306   -4.7318 C   0  0  0  0  0  0  0  0  0  0  0  0
   -5.8100   -0.1570   -6.0181 O   0  0  0  0  0  0  0  0  0  0  0  0
   -7.1665   -0.0746   -6.3480 C   0  0  0  0  0  0  0  0  0  0  0  0
   -6.3322    0.1605   -3.6796 C   0  0  0  0  0  0  0  0  0  0  0  0
   -5.8712    0.2890   -2.3655 C   0  0  0  0  0  0  0  0  0  0  0  0
   -6.6833    0.4757   -1.3097 O   0  0  0  0  0  0  0  0  0  0  0  0
   -8.0638    0.5740   -1.5093 C   0  0  0  0  0  0  0  0  0  0  0  0
   -4.4951    0.2180   -2.1108 C   0  0  0  0  0  0  0  0  0  0  0  0
   -3.9363    0.3815   -0.4757 Cl  0  0  0  0  0  0  0  0  0  0  0  0
   -1.4627   -1.2051   -2.6692 C   0  0  0  0  0  0  0  0  0  0  0  0
    0.6030    0.0124   -2.1794 C   0  0  0  0  0  0  0  0  0  0  0  0
   -0.0816   -1.2116   -2.3241 C   0  0  0  0  0  0  0  0  0  0  0  0
    0.6771   -2.3538   -1.9993 C   0  0  0  0  0  0  0  0  0  0  0  0
    1.9329   -2.3161   -1.6400 N   0  0  0  0  0  0  0  0  0  0  0  0
    2.5237   -1.0878   -1.6434 C   0  0  0  0  0  0  0  0  0  0  0  0
    3.8392   -1.0647   -1.3551 N   0  0  0  0  0  0  0  0  0  0  0  0
    4.5737    0.1764   -1.3539 C   0  0  0  0  0  0  0  0  0  0  0  0
    1.9000    0.0645   -1.9075 N   0  0  0  0  0  0  0  0  0  0  0  0
    5.1967    0.1242    2.1690 C   0  0  0  0  0  3  0  0  0  0  0  0
    5.4147    1.4483    2.7893 C   0  0  0  0  0  0  0  0  0  0  0  0
    5.4584    1.5869    4.6860 S   0  0  0  0  0  0  0  0  0  0  0  0
    3.6900    1.4712    5.0815 C   0  0  0  0  0  0  0  0  0  0  0  0
    3.1380    0.0912    5.4647 C   0  0  2  0  0  0  0  0  0  0  0  0
    3.3242   -0.1119    6.5346 H   0  0  0  0  0  0  0  0  0  0  0  0
    3.7648   -0.9693    4.7076 N   0  0  0  0  0  0  0  0  0  0  0  0
    3.8102   -2.2591    5.0832 C   0  0  0  0  0  0  0  0  0  0  0  0
    4.6582   -3.1369    4.1927 C   0  0  0  0  0  0  0  0  0  0  0  0
    3.2069   -2.6945    6.0689 O   0  0  0  0  0  0  0  0  0  0  0  0
    1.5979    0.1075    5.2789 C   0  0  0  0  0  0  0  0  0  0  0  0
    0.9941   -1.0397    5.6601 N   0  0  0  0  0  0  0  0  0  0  0  0
   -0.4129   -1.2704    5.4723 C   0  0  0  0  0  0  0  0  0  0  0  0
    0.9985    1.0810    4.8470 O   0  0  0  0  0  0  0  0  0  0  0  0
    1.0577   -0.9170    2.5944 H   0  0  0  0  0  0  0  0  0  0  0  0
    1.4134   -0.9532    0.8361 H   0  0  0  0  0  0  0  0  0  0  0  0
    0.3628    1.4588    2.4145 H   0  0  0  0  0  0  0  0  0  0  0  0
    2.6152    2.4120    2.1841 H   0  0  0  0  0  0  0  0  0  0  0  0
    2.7323    1.8001    0.4958 H   0  0  0  0  0  0  0  0  0  0  0  0
    0.6586    3.2245    0.3020 H   0  0  0  0  0  0  0  0  0  0  0  0
   -1.0122    2.8020   -0.1607 H   0  0  0  0  0  0  0  0  0  0  0  0
    1.5600    2.3199   -1.7724 H   0  0  0  0  0  0  0  0  0  0  0  0
    0.1062    3.2721   -2.2396 H   0  0  0  0  0  0  0  0  0  0  0  0
   -7.2303   -0.1937   -7.4363 H   0  0  0  0  0  0  0  0  0  0  0  0
   -7.5977    0.9034   -6.0709 H   0  0  0  0  0  0  0  0  0  0  0  0
   -7.7560   -0.8754   -5.8675 H   0  0  0  0  0  0  0  0  0  0  0  0
   -7.3983    0.2125   -3.8846 H   0  0  0  0  0  0  0  0  0  0  0  0
   -8.5106    0.7331   -0.5205 H   0  0  0  0  0  0  0  0  0  0  0  0
   -8.4834   -0.3504   -1.9444 H   0  0  0  0  0  0  0  0  0  0  0  0
   -8.3247    1.4276   -2.1594 H   0  0  0  0  0  0  0  0  0  0  0  0
   -1.9922   -2.1573   -2.7694 H   0  0  0  0  0  0  0  0  0  0  0  0
    0.1934   -3.3397   -2.0271 H   0  0  0  0  0  0  0  0  0  0  0  0
    4.0749   -1.7109   -0.5894 H   0  0  0  0  0  0  0  0  0  0  0  0
    4.5033    0.6592   -2.3401 H   0  0  0  0  0  0  0  0  0  0  0  0
    5.6251   -0.0425   -1.1303 H   0  0  0  0  0  0  0  0  0  0  0  0
    4.2166    0.8875   -0.5934 H   0  0  0  0  0  0  0  0  0  0  0  0
    6.0777   -0.4981    1.9898 H   0  0  0  0  0  0  0  0  0  0  0  0
    4.6854    2.2176    2.4985 H   0  0  0  0  0  0  0  0  0  0  0  0
    6.4098    1.8468    2.5393 H   0  0  0  0  0  0  0  0  0  0  0  0
    3.1246    1.8401    4.2180 H   0  0  0  0  0  0  0  0  0  0  0  0
    3.4849    2.1708    5.9033 H   0  0  0  0  0  0  0  0  0  0  0  0
    4.3037   -0.6947    3.8747 H   0  0  0  0  0  0  0  0  0  0  0  0
    5.7228   -2.9515    4.4030 H   0  0  0  0  0  0  0  0  0  0  0  0
    4.4724   -2.8954    3.1313 H   0  0  0  0  0  0  0  0  0  0  0  0
    4.4271   -4.1877    4.4046 H   0  0  0  0  0  0  0  0  0  0  0  0
    1.6088   -1.7960    5.9823 H   0  0  0  0  0  0  0  0  0  0  0  0
   -0.8671   -0.3438    5.0984 H   0  0  0  0  0  0  0  0  0  0  0  0
   -0.9036   -1.5492    6.4193 H   0  0  0  0  0  0  0  0  0  0  0  0
   -0.5972   -2.0729    4.7389 H   0  0  0  0  0  0  0  0  0  0  0  0
  1  2  2  0  0  0  0
  2  3  1  0  0  0  0
  2 35  1  0  0  0  0
  4  3  1  0  0  0  0
  4 49  1  0  0  0  0
  5  4  1  0  0  0  0
  5 51  1  1  0  0  0
  6  5  1  0  0  0  0
  6  3  1  0  0  0  0
  6 52  1  0  0  0  0
  7  5  1  0  0  0  0
  8 55  1  0  0  0  0
  8 54  1  0  0  0  0
  8  7  1  0  0  0  0
  9  8  1  0  0  0  0
 10 27  1  0  0  0  0
 10  9  1  0  0  0  0
 11 10  1  0  0  0  0
 12 11  2  0  0  0  0
 13 26  2  0  0  0  0
 13 11  1  0  0  0  0
 14 13  1  0  0  0  0
 14 24  1  0  0  0  0
 15 14  2  0  0  0  0
 16 15  1  0  0  0  0
 17 15  1  0  0  0  0
 17 20  2  0  0  0  0
 18 17  1  0  0  0  0
 19 59  1  0  0  0  0
 19 18  1  0  0  0  0
 19 60  1  0  0  0  0
 20 21  1  0  0  0  0
 21 24  2  0  0  0  0
 21 22  1  0  0  0  0
 23 22  1  0  0  0  0
 23 62  1  0  0  0  0
 24 25  1  0  0  0  0
 26 28  1  0  0  0  0
 27 34  2  0  0  0  0
 28 27  1  0  0  0  0
 28 29  2  0  0  0  0
 29 30  1  0  0  0  0
 31 30  2  0  0  0  0
 31 32  1  0  0  0  0
 32 33  1  0  0  0  0
 32 67  1  0  0  0  0
 33 69  1  0  0  0  0
 33 70  1  0  0  0  0
 34 31  1  0  0  0  0
 35 36  1  0  0  0  0
 36 37  1  0  0  0  0
 37 38  1  0  0  0  0
 38 39  1  0  0  0  0
 38 75  1  0  0  0  0
 39 40  1  1  0  0  0
 41 42  1  0  0  0  0
 41 39  1  0  0  0  0
 42 44  2  0  0  0  0
 43 77  1  0  0  0  0
 43 79  1  0  0  0  0
 43 42  1  0  0  0  0
 45 39  1  0  0  0  0
 45 46  1  0  0  0  0
 46 80  1  0  0  0  0
 47 46  1  0  0  0  0
 47 82  1  0  0  0  0
 48 45  2  0  0  0  0
 50  4  1  0  0  0  0
 53  6  1  0  0  0  0
 56  9  1  0  0  0  0
 57  9  1  0  0  0  0
 58 19  1  0  0  0  0
 61 20  1  0  0  0  0
 63 23  1  0  0  0  0
 64 23  1  0  0  0  0
 65 26  1  0  0  0  0
 66 29  1  0  0  0  0
 68 33  1  0  0  0  0
 71 35  1  0  0  0  0
 72 36  1  0  0  0  0
 73 36  1  0  0  0  0
 74 38  1  0  0  0  0
 76 41  1  0  0  0  0
 78 43  1  0  0  0  0
 81 47  1  0  0  0  0
 83 47  1  0  0  0  0
M  END
