93
-1 1
O        -3.440302    2.863293   -1.735202
C        -3.139448    1.877130   -2.437071
N        -3.881795    0.650031   -2.114390
C        -3.355983   -0.443051   -1.457244
C        -4.184609   -1.329415   -0.737295
C        -3.649625   -2.407162   -0.036462
C        -2.278747   -2.685997   -0.045390
C        -1.664951   -3.821768    0.734922
C        -1.102467   -3.433305    2.119689
N        -0.376339   -2.162496    2.135301
C        -0.997181   -1.066130    2.792327
O        -1.975698   -1.244293    3.483566
C        -0.380770    0.258908    2.582057
C        -1.061504    1.472837    3.105046
C        -2.281738    1.901505    2.577225
Cl        -3.092892    0.957755    1.377799
C        -2.839000    3.128365    2.982395
O        -4.010385    3.575712    2.480047
C        -3.948052    4.169090    1.183560
C        -2.182510    3.892957    3.941342
C        -0.972171    3.462883    4.492044
O        -0.413411    4.276943    5.419799
C         0.819248    3.917410    5.973045
C        -0.409463    2.259278    4.065404
C         0.788796    0.376913    1.915075
C         0.803993   -2.042922    1.459627
C         1.422430   -0.775659    1.346608
C         2.576493   -0.727287    0.574895
N         3.085845   -1.799570   -0.030111
C         2.425024   -2.960347    0.148443
N         2.902241   -4.072446   -0.480408
C         3.862394   -4.051858   -1.570259
C         5.285640   -4.390937   -1.121347
C         5.885399   -3.349361   -0.168316
O         5.827676   -2.047127   -0.660204
O         5.333825   -5.669864   -0.533648
N         1.325476   -3.125752    0.882523
C        -1.467865   -1.821301   -0.790034
C        -1.980014   -0.721731   -1.456913
C        -2.212622    1.858663   -3.478995
C        -2.025864    0.791809   -4.505398
S        -0.286127    0.569948   -5.126375
C         0.545250   -0.362511   -3.804772
C         1.254064    0.417766   -2.674481
H         1.388082   -0.306563   -1.848714
N         0.467304    1.514615   -2.184432
C         0.797068    2.164472   -1.055093
C        -0.219293    3.154270   -0.533674
O         1.851100    1.944197   -0.453230
C         2.659573    0.846844   -3.120733
N         3.639393   -0.026068   -2.743331
C         5.023182    0.232921   -3.063005
O         2.876867    1.816069   -3.815831
H        -4.776901    0.934636   -1.729577
H        -5.261880   -1.144476   -0.704124
H        -4.324764   -3.048954    0.538082
H        -0.852931   -4.269908    0.144532
H        -2.410870   -4.614093    0.908364
H        -0.429983   -4.224756    2.480546
H        -1.915576   -3.303469    2.841788
H        -4.947004    4.577830    0.986508
H        -3.697594    3.450752    0.385047
H        -3.216472    4.995850    1.181947
H        -2.620037    4.839726    4.258706
H         1.609264    3.839710    5.204936
H         0.763293    2.958249    6.518410
H         1.091672    4.710593    6.680945
H         0.539742    1.900581    4.461596
H         1.239831    1.353596    1.723618
H         3.060431    0.236030    0.392787
H         2.280245   -4.866351   -0.404044
H         3.843656   -3.071395   -2.067991
H         3.547538   -4.802259   -2.310027
H         5.911820   -4.435296   -2.026981
H         6.938349   -3.619269    0.010037
H         5.366035   -3.439445    0.809857
H         4.910121   -1.749574   -0.505836
H         4.750840   -5.637302    0.233769
H        -0.391599   -2.005319   -0.850711
H        -1.316154   -0.024196   -1.950653
H        -1.828709    2.850284   -3.741245
H        -2.535151    1.010068   -5.463628
H        -2.399049   -0.190101   -4.174916
H         1.301585   -0.986895   -4.303082
H        -0.193938   -1.050825   -3.373670
H        -0.444815    1.726330   -2.633447
H        -1.126999    3.239822   -1.148810
H         0.265656    4.134909   -0.426316
H        -0.521670    2.825758    0.473007
H         3.437324   -0.673432   -1.989654
H         5.360521    1.198324   -2.650511
H         5.166125    0.273686   -4.153368
H         5.640340   -0.571524   -2.641829
