-1 1
 OpenBabel05232414493D

 93 95  0  0  1  0  0  0  0  0999 V2000
   -5.3708   18.9901   -1.8326 O   0  0  0  0  0  0  0  0  0  0  0  0
   -5.0898   17.9400   -2.4145 C   0  0  0  0  0  0  0  0  0  0  0  0
   -5.7392   16.7591   -1.9192 N   0  0  0  0  0  0  0  0  0  0  0  0
   -5.1459   15.6194   -1.3886 C   0  0  0  0  0  0  0  0  0  0  0  0
   -5.9248   14.7461   -0.6068 C   0  0  0  0  0  0  0  0  0  0  0  0
   -5.3508   13.6599    0.0440 C   0  0  0  0  0  0  0  0  0  0  0  0
   -3.9883   13.3745   -0.0800 C   0  0  0  0  0  0  0  0  0  0  0  0
   -3.3295   12.2420    0.6664 C   0  0  0  0  0  0  0  0  0  0  0  0
   -2.7738   12.6289    2.0517 C   0  0  0  0  0  0  0  0  0  0  0  0
   -2.0659   13.9094    2.0712 N   0  0  0  0  0  0  0  0  0  0  0  0
   -2.6936   14.9938    2.7377 C   0  0  0  0  0  0  0  0  0  0  0  0
   -3.6856   14.8072    3.4087 O   0  0  0  0  0  0  0  0  0  0  0  0
   -2.0690   16.3194    2.5628 C   0  0  0  0  0  0  0  0  0  0  0  0
   -2.7456   17.5208    3.1208 C   0  0  0  0  0  0  0  0  0  0  0  0
   -3.9554   17.9798    2.5959 C   0  0  0  0  0  0  0  0  0  0  0  0
   -4.7534   17.0820    1.3507 Cl  0  0  0  0  0  0  0  0  0  0  0  0
   -4.5174   19.1870    3.0473 C   0  0  0  0  0  0  0  0  0  0  0  0
   -5.6839   19.6597    2.5518 O   0  0  0  0  0  0  0  0  0  0  0  0
   -5.6191   20.2840    1.2737 C   0  0  0  0  0  0  0  0  0  0  0  0
   -3.8746   19.9050    4.0503 C   0  0  0  0  0  0  0  0  0  0  0  0
   -2.6741   19.4452    4.5988 C   0  0  0  0  0  0  0  0  0  0  0  0
   -2.1283   20.2134    5.5713 O   0  0  0  0  0  0  0  0  0  0  0  0
   -0.9090   19.8214    6.1331 C   0  0  0  0  0  0  0  0  0  0  0  0
   -2.1077   18.2600    4.1262 C   0  0  0  0  0  0  0  0  0  0  0  0
   -0.8970   16.4502    1.9022 C   0  0  0  0  0  0  0  0  0  0  0  0
   -0.8812   14.0401    1.4034 C   0  0  0  0  0  0  0  0  0  0  0  0
   -0.2577   15.3069    1.3215 C   0  0  0  0  0  0  0  0  0  0  0  0
    0.9201   15.3569    0.5859 C   0  0  0  0  0  0  0  0  0  0  0  0
    1.4441   14.2891   -0.0129 N   0  0  0  0  0  0  0  0  0  0  0  0
    0.7643   13.1326    0.1164 C   0  0  0  0  0  0  0  0  0  0  0  0
    1.2443   12.0297   -0.5234 N   0  0  0  0  0  0  0  0  0  0  0  0
    2.2435   12.0541   -1.5780 C   0  0  0  0  0  0  0  0  0  0  0  0
    3.6442   11.6860   -1.0837 C   0  0  1  0  0  0  0  0  0  0  0  0
    4.2227   12.6940   -0.0828 C   0  0  0  0  0  0  0  0  0  0  0  0
    4.2107   14.0089   -0.5436 O   0  0  0  0  0  0  0  0  0  0  0  0
    3.6533   10.3931   -0.5246 O   0  0  0  0  0  0  0  0  0  0  0  0
   -0.3572   12.9651    0.8162 N   0  0  0  0  0  0  0  0  0  0  0  0
   -3.2328   14.2217   -0.8981 C   0  0  0  0  0  0  0  0  0  0  0  0
   -3.7850   15.3224   -1.5391 C   0  0  0  0  0  0  0  0  0  0  0  0
   -4.3040   17.8932   -3.6091 C   0  0  0  0  0  3  0  0  0  0  0  0
   -4.1520   16.8228   -4.4874 C   0  0  0  0  0  3  0  0  0  0  0  0
   -1.9690   16.0106   -4.9911 S   0  0  0  0  0  1  0  0  0  0  0  0
   -0.9933   15.2593   -3.6538 C   0  0  0  0  0  0  0  0  0  0  0  0
   -0.3281   16.2441   -2.6610 C   0  0  2  0  0  0  0  0  0  0  0  0
   -0.1734   15.6976   -1.7168 H   0  0  0  0  0  0  0  0  0  0  0  0
   -1.1893   17.3565   -2.3708 N   0  0  0  0  0  0  0  0  0  0  0  0
   -1.0104   18.1192   -1.2748 C   0  0  0  0  0  0  0  0  0  0  0  0
   -2.0792   19.1448   -0.9907 C   0  0  0  0  0  0  0  0  0  0  0  0
   -0.0674   17.9389   -0.5039 O   0  0  0  0  0  0  0  0  0  0  0  0
    1.0562   16.6957   -3.1451 C   0  0  0  0  0  0  0  0  0  0  0  0
    2.0647   15.8584   -2.7549 N   0  0  0  0  0  0  0  0  0  0  0  0
    3.4374   16.1384   -3.1005 C   0  0  0  0  0  0  0  0  0  0  0  0
    1.2476   17.6659   -3.8455 O   0  0  0  0  0  0  0  0  0  0  0  0
   -6.5365   17.0649   -1.3703 H   0  0  0  0  0  0  0  0  0  0  0  0
   -6.9912   14.9520   -0.4804 H   0  0  0  0  0  0  0  0  0  0  0  0
   -5.9815   13.0246    0.6730 H   0  0  0  0  0  0  0  0  0  0  0  0
   -2.5083   11.8352    0.0603 H   0  0  0  0  0  0  0  0  0  0  0  0
   -4.0475   11.4222    0.8298 H   0  0  0  0  0  0  0  0  0  0  0  0
   -2.0889   11.8459    2.4075 H   0  0  0  0  0  0  0  0  0  0  0  0
   -3.5887   12.7429    2.7747 H   0  0  0  0  0  0  0  0  0  0  0  0
   -6.5991   20.7483    1.1073 H   0  0  0  0  0  0  0  0  0  0  0  0
   -5.4259   19.5729    0.4547 H   0  0  0  0  0  0  0  0  0  0  0  0
   -4.8450   21.0707    1.2720 H   0  0  0  0  0  0  0  0  0  0  0  0
   -4.3152   20.8366    4.4057 H   0  0  0  0  0  0  0  0  0  0  0  0
   -0.1036   19.7742    5.3788 H   0  0  0  0  0  0  0  0  0  0  0  0
   -0.9817   18.8389    6.6329 H   0  0  0  0  0  0  0  0  0  0  0  0
   -0.6478   20.5800    6.8818 H   0  0  0  0  0  0  0  0  0  0  0  0
   -1.1668   17.8797    4.5219 H   0  0  0  0  0  0  0  0  0  0  0  0
   -0.4528   17.4321    1.7279 H   0  0  0  0  0  0  0  0  0  0  0  0
    1.4223   16.3160    0.4355 H   0  0  0  0  0  0  0  0  0  0  0  0
    0.6107   11.2424   -0.4820 H   0  0  0  0  0  0  0  0  0  0  0  0
    2.2532   13.0396   -2.0651 H   0  0  0  0  0  0  0  0  0  0  0  0
    1.9443   11.3197   -2.3396 H   0  0  0  0  0  0  0  0  0  0  0  0
    4.3034   11.6536   -1.9660 H   0  0  0  0  0  0  0  0  0  0  0  0
    5.2622   12.3992    0.1312 H   0  0  0  0  0  0  0  0  0  0  0  0
    3.6624   12.5906    0.8712 H   0  0  0  0  0  0  0  0  0  0  0  0
    3.2951   14.3231   -0.4184 H   0  0  0  0  0  0  0  0  0  0  0  0
    3.0425   10.4158    0.2211 H   0  0  0  0  0  0  0  0  0  0  0  0
   -2.1659   14.0225   -1.0348 H   0  0  0  0  0  0  0  0  0  0  0  0
   -3.1534   15.9808   -2.1280 H   0  0  0  0  0  0  0  0  0  0  0  0
   -3.9530   18.8804   -3.9225 H   0  0  0  0  0  0  0  0  0  0  0  0
   -4.0762   17.0398   -5.5544 H   0  0  0  0  0  0  0  0  0  0  0  0
   -4.6298   15.8669   -4.2573 H   0  0  0  0  0  0  0  0  0  0  0  0
   -0.1957   14.6491   -4.1065 H   0  0  0  0  0  0  0  0  0  0  0  0
   -1.6291   14.5653   -3.0868 H   0  0  0  0  0  0  0  0  0  0  0  0
   -1.8897   17.5915   -3.0767 H   0  0  0  0  0  0  0  0  0  0  0  0
   -2.6012   19.4926   -1.8906 H   0  0  0  0  0  0  0  0  0  0  0  0
   -1.6331   19.9886   -0.4500 H   0  0  0  0  0  0  0  0  0  0  0  0
   -2.8396   18.6774   -0.3443 H   0  0  0  0  0  0  0  0  0  0  0  0
    1.8842   15.2312   -1.9790 H   0  0  0  0  0  0  0  0  0  0  0  0
    3.7436   17.1431   -2.7640 H   0  0  0  0  0  0  0  0  0  0  0  0
    3.5795   16.1013   -4.1914 H   0  0  0  0  0  0  0  0  0  0  0  0
    4.0811   15.3882   -2.6223 H   0  0  0  0  0  0  0  0  0  0  0  0
  2  3  1  0  0  0  0
  2  1  2  0  0  0  0
  3  4  1  0  0  0  0
  3 54  1  0  0  0  0
  4  5  1  0  0  0  0
  5 55  1  0  0  0  0
  5  6  2  0  0  0  0
  6 56  1  0  0  0  0
  7  6  1  0  0  0  0
  7  8  1  0  0  0  0
  8 58  1  0  0  0  0
  8  9  1  0  0  0  0
  9 10  1  0  0  0  0
  9 59  1  0  0  0  0
  9 60  1  0  0  0  0
 10 11  1  0  0  0  0
 11 12  2  0  0  0  0
 13 11  1  0  0  0  0
 13 14  1  0  0  0  0
 14 24  1  0  0  0  0
 15 17  1  0  0  0  0
 15 14  2  0  0  0  0
 16 15  1  0  0  0  0
 17 20  2  0  0  0  0
 18 17  1  0  0  0  0
 19 18  1  0  0  0  0
 20 64  1  0  0  0  0
 20 21  1  0  0  0  0
 21 22  1  0  0  0  0
 22 23  1  0  0  0  0
 23 66  1  0  0  0  0
 23 67  1  0  0  0  0
 24 68  1  0  0  0  0
 24 21  2  0  0  0  0
 25 13  2  0  0  0  0
 26 10  1  0  0  0  0
 27 26  1  0  0  0  0
 27 25  1  0  0  0  0
 28 27  2  0  0  0  0
 29 30  2  0  0  0  0
 29 28  1  0  0  0  0
 30 37  1  0  0  0  0
 31 71  1  0  0  0  0
 31 30  1  0  0  0  0
 32 33  1  0  0  0  0
 32 31  1  0  0  0  0
 33 74  1  6  0  0  0
 33 36  1  0  0  0  0
 33 34  1  0  0  0  0
 34 75  1  0  0  0  0
 34 76  1  0  0  0  0
 35 77  1  0  0  0  0
 35 34  1  0  0  0  0
 36 78  1  0  0  0  0
 37 26  2  0  0  0  0
 38  7  2  0  0  0  0
 39  4  2  0  0  0  0
 39 38  1  0  0  0  0
 40  2  1  0  0  0  0
 41 83  1  0  0  0  0
 41 40  1  0  0  0  0
 42 43  1  0  0  0  0
 43 85  1  0  0  0  0
 43 44  1  0  0  0  0
 44 46  1  0  0  0  0
 44 45  1  1  0  0  0
 46 47  1  0  0  0  0
 47 48  1  0  0  0  0
 47 49  2  0  0  0  0
 48 88  1  0  0  0  0
 48 89  1  0  0  0  0
 50 51  1  0  0  0  0
 50 44  1  0  0  0  0
 51 90  1  0  0  0  0
 52 91  1  0  0  0  0
 52 51  1  0  0  0  0
 52 93  1  0  0  0  0
 53 50  2  0  0  0  0
 57  8  1  0  0  0  0
 61 19  1  0  0  0  0
 62 19  1  0  0  0  0
 63 19  1  0  0  0  0
 65 23  1  0  0  0  0
 69 25  1  0  0  0  0
 70 28  1  0  0  0  0
 72 32  1  0  0  0  0
 73 32  1  0  0  0  0
 79 38  1  0  0  0  0
 80 39  1  0  0  0  0
 81 40  1  0  0  0  0
 82 41  1  0  0  0  0
 84 43  1  0  0  0  0
 86 46  1  0  0  0  0
 87 48  1  0  0  0  0
 92 52  1  0  0  0  0
M  END
