93
-1 1
O        -5.370807   18.990139   -1.832612
C        -5.089772   17.940047   -2.414517
N        -5.739205   16.759094   -1.919245
C        -5.145872   15.619413   -1.388627
C        -5.924828   14.746088   -0.606779
C        -5.350780   13.659855    0.044045
C        -3.988341   13.374539   -0.080046
C        -3.329538   12.242029    0.666396
C        -2.773825   12.628922    2.051712
N        -2.065890   13.909396    2.071170
C        -2.693607   14.993833    2.737735
O        -3.685570   14.807184    3.408732
C        -2.069039   16.319374    2.562781
C        -2.745644   17.520766    3.120794
C        -3.955407   17.979829    2.595948
Cl        -4.753406   17.082049    1.350652
C        -4.517359   19.187009    3.047252
O        -5.683882   19.659676    2.551786
C        -5.619059   20.284017    1.273665
C        -3.874599   19.904959    4.050286
C        -2.674063   19.445195    4.598847
O        -2.128313   20.213368    5.571281
C        -0.908986   19.821365    6.133140
C        -2.107706   18.260033    4.126241
C        -0.896963   16.450177    1.902213
C        -0.881230   14.040140    1.403385
C        -0.257668   15.306908    1.321548
C         0.920105   15.356928    0.585905
N         1.444063   14.289140   -0.012885
C         0.764329   13.132564    0.116447
N         1.244312   12.029705   -0.523409
C         2.243505   12.054135   -1.577981
C         3.644163   11.685997   -1.083736
C         4.222691   12.693996   -0.082846
O         4.210740   14.008881   -0.543569
O         3.653348   10.393063   -0.524628
N        -0.357243   12.965076    0.816183
C        -3.232830   14.221728   -0.898147
C        -3.785046   15.322421   -1.539081
C        -4.304031   17.893182   -3.609074
C        -4.151975   16.822840   -4.487449
S        -1.969033   16.010650   -4.991078
C        -0.993312   15.259343   -3.653793
C        -0.328066   16.244065   -2.661046
H        -0.173402   15.697632   -1.716767
N        -1.189288   17.356535   -2.370777
C        -1.010408   18.119228   -1.274828
C        -2.079199   19.144814   -0.990747
O        -0.067384   17.938900   -0.503932
C         1.056207   16.695657   -3.145082
N         2.064685   15.858368   -2.754871
C         3.437431   16.138397   -3.100480
O         1.247608   17.665925   -3.845529
H        -6.536513   17.064859   -1.370341
H        -6.991176   14.951980   -0.480394
H        -5.981451   13.024575    0.672963
H        -2.508287   11.835159    0.060335
H        -4.047533   11.422231    0.829792
H        -2.088896   11.845890    2.407485
H        -3.588691   12.742868    2.774691
H        -6.599114   20.748310    1.107345
H        -5.425931   19.572934    0.454671
H        -4.845010   21.070729    1.271955
H        -4.315235   20.836572    4.405747
H        -0.103566   19.774227    5.378815
H        -0.981712   18.838930    6.632870
H        -0.647751   20.579977    6.881830
H        -1.166751   17.879686    4.521928
H        -0.452755   17.432097    1.727887
H         1.422280   16.315997    0.435464
H         0.610671   11.242432   -0.482025
H         2.253249   13.039609   -2.065056
H         1.944314   11.319743   -2.339647
H         4.303410   11.653570   -1.965986
H         5.262214   12.399181    0.131174
H         3.662375   12.590645    0.871212
H         3.295113   14.323091   -0.418369
H         3.042541   10.415777    0.221101
H        -2.165906   14.022536   -1.034754
H        -3.153423   15.980803   -2.128003
H        -3.952959   18.880382   -3.922504
H        -4.076198   17.039819   -5.554419
H        -4.629791   15.866874   -4.257330
H        -0.195744   14.649058   -4.106472
H        -1.629067   14.565304   -3.086753
H        -1.889686   17.591539   -3.076705
H        -2.601166   19.492573   -1.890630
H        -1.633115   19.988605   -0.450003
H        -2.839609   18.677385   -0.344274
H         1.884224   15.231178   -1.978974
H         3.743638   17.143060   -2.764046
H         3.579528   16.101289   -4.191406
H         4.081060   15.388166   -2.622316
