-1 1
 OpenBabel05232413493D

 93 95  0  0  1  0  0  0  0  0999 V2000
   -4.5333    3.1583   -2.1131 O   0  0  0  0  0  0  0  0  0  0  0  0
   -4.0697    2.0760   -2.4362 C   0  0  0  0  0  0  0  0  0  0  0  0
   -4.4315    0.9553   -1.7006 N   0  0  0  0  0  0  0  0  0  0  0  0
   -3.7208   -0.2000   -1.3137 C   0  0  0  0  0  0  0  0  0  0  0  0
   -4.4086   -1.1407   -0.5336 C   0  0  0  0  0  0  0  0  0  0  0  0
   -3.7448   -2.2309    0.0167 C   0  0  0  0  0  0  0  0  0  0  0  0
   -2.3825   -2.4378   -0.2151 C   0  0  0  0  0  0  0  0  0  0  0  0
   -1.6364   -3.5830    0.4201 C   0  0  0  0  0  0  0  0  0  0  0  0
   -1.0989   -3.2756    1.8281 C   0  0  0  0  0  0  0  0  0  0  0  0
   -0.3777   -2.0057    1.9183 N   0  0  0  0  0  0  0  0  0  0  0  0
   -1.0007   -0.9430    2.6180 C   0  0  0  0  0  0  0  0  0  0  0  0
   -2.0176   -1.1382    3.2494 O   0  0  0  0  0  0  0  0  0  0  0  0
   -0.3407    0.3746    2.5284 C   0  0  0  0  0  0  0  0  0  0  0  0
   -1.0090    1.5607    3.1278 C   0  0  0  0  0  0  0  0  0  0  0  0
   -2.2258    2.0450    2.6415 C   0  0  0  0  0  0  0  0  0  0  0  0
   -3.0446    1.2098    1.3650 Cl  0  0  0  0  0  0  0  0  0  0  0  0
   -2.7847    3.2259    3.1592 C   0  0  0  0  0  0  0  0  0  0  0  0
   -3.9675    3.7120    2.7098 O   0  0  0  0  0  0  0  0  0  0  0  0
   -3.9413    4.3973    1.4680 C   0  0  0  0  0  0  0  0  0  0  0  0
   -2.1297    3.9018    4.1824 C   0  0  0  0  0  0  0  0  0  0  0  0
   -0.9189    3.4212    4.6894 C   0  0  0  0  0  0  0  0  0  0  0  0
   -0.3595    4.1452    5.6860 O   0  0  0  0  0  0  0  0  0  0  0  0
    0.8667    3.7279    6.2158 C   0  0  0  0  0  0  0  0  0  0  0  0
   -0.3602    2.2580    4.1568 C   0  0  0  0  0  0  0  0  0  0  0  0
    0.8689    0.5009    1.9351 C   0  0  0  0  0  0  0  0  0  0  0  0
    0.8431   -1.8777    1.3144 C   0  0  0  0  0  0  0  0  0  0  0  0
    1.5127   -0.6338    1.3452 C   0  0  0  0  0  0  0  0  0  0  0  0
    2.7539   -0.6000    0.7199 C   0  0  0  0  0  0  0  0  0  0  0  0
    3.2862   -1.6566    0.1129 N   0  0  0  0  0  0  0  0  0  0  0  0
    2.5397   -2.7801    0.0921 C   0  0  0  0  0  0  0  0  0  0  0  0
    3.0071   -3.8558   -0.5982 N   0  0  0  0  0  0  0  0  0  0  0  0
    4.0567   -3.8053   -1.6048 C   0  0  0  0  0  0  0  0  0  0  0  0
    5.4155   -4.2678   -1.0768 C   0  0  1  0  0  0  0  0  0  0  0  0
    5.9926   -3.3602    0.0170 C   0  0  0  0  0  0  0  0  0  0  0  0
    6.0545   -2.0149   -0.3429 O   0  0  0  0  0  0  0  0  0  0  0  0
    5.3459   -5.5948   -0.6078 O   0  0  0  0  0  0  0  0  0  0  0  0
    1.3608   -2.9355    0.6943 N   0  0  0  0  0  0  0  0  0  0  0  0
   -1.7168   -1.5150   -1.0273 C   0  0  0  0  0  0  0  0  0  0  0  0
   -2.3624   -0.4096   -1.5678 C   0  0  0  0  0  0  0  0  0  0  0  0
   -3.2330    1.9551   -3.6527 C   0  0  0  0  0  0  0  0  0  0  0  0
   -3.0753    0.8620   -4.4062 C   0  0  0  0  0  0  0  0  0  0  0  0
   -0.1167   -0.5996   -4.8299 S   0  0  0  0  0  1  0  0  0  0  0  0
    1.1085   -1.1738   -3.6131 C   0  0  0  0  0  0  0  0  0  0  0  0
    1.6565   -0.0795   -2.6396 C   0  0  2  0  0  0  0  0  0  0  0  0
    1.8359   -0.5582   -1.6668 H   0  0  0  0  0  0  0  0  0  0  0  0
    0.6818    0.9525   -2.4467 N   0  0  0  0  0  0  0  0  0  0  0  0
    0.7375    1.8182   -1.4253 C   0  0  0  0  0  0  0  0  0  0  0  0
   -0.4177    2.7883   -1.3133 C   0  0  0  0  0  0  0  0  0  0  0  0
    1.6340    1.7966   -0.5793 O   0  0  0  0  0  0  0  0  0  0  0  0
    2.9982    0.4910   -3.1103 C   0  0  0  0  0  0  0  0  0  0  0  0
    4.0768   -0.1999   -2.6235 N   0  0  0  0  0  0  0  0  0  0  0  0
    5.4251    0.2075   -2.9310 C   0  0  0  0  0  0  0  0  0  0  0  0
    3.1154    1.4263   -3.8718 O   0  0  0  0  0  0  0  0  0  0  0  0
   -5.1520    1.2206   -1.0359 H   0  0  0  0  0  0  0  0  0  0  0  0
   -5.4724   -0.9920   -0.3300 H   0  0  0  0  0  0  0  0  0  0  0  0
   -4.3010   -2.9310    0.6463 H   0  0  0  0  0  0  0  0  0  0  0  0
   -0.7956   -3.8746   -0.2237 H   0  0  0  0  0  0  0  0  0  0  0  0
   -2.2940   -4.4622    0.5140 H   0  0  0  0  0  0  0  0  0  0  0  0
   -0.4237   -4.0816    2.1489 H   0  0  0  0  0  0  0  0  0  0  0  0
   -1.9223   -3.1929    2.5460 H   0  0  0  0  0  0  0  0  0  0  0  0
   -4.9230    4.8725    1.3508 H   0  0  0  0  0  0  0  0  0  0  0  0
   -3.7799    3.7184    0.6165 H   0  0  0  0  0  0  0  0  0  0  0  0
   -3.1606    5.1771    1.4713 H   0  0  0  0  0  0  0  0  0  0  0  0
   -2.5690    4.8126    4.5894 H   0  0  0  0  0  0  0  0  0  0  0  0
    1.6624    3.7130    5.4502 H   0  0  0  0  0  0  0  0  0  0  0  0
    0.7979    2.7251    6.6734 H   0  0  0  0  0  0  0  0  0  0  0  0
    1.1376    4.4534    6.9931 H   0  0  0  0  0  0  0  0  0  0  0  0
    0.5833    1.8591    4.5273 H   0  0  0  0  0  0  0  0  0  0  0  0
    1.3474    1.4766    1.8345 H   0  0  0  0  0  0  0  0  0  0  0  0
    3.3155    0.3364    0.6790 H   0  0  0  0  0  0  0  0  0  0  0  0
    2.3238   -4.5987   -0.6666 H   0  0  0  0  0  0  0  0  0  0  0  0
    4.1263   -2.7955   -2.0322 H   0  0  0  0  0  0  0  0  0  0  0  0
    3.7605   -4.4756   -2.4240 H   0  0  0  0  0  0  0  0  0  0  0  0
    6.1115   -4.2702   -1.9310 H   0  0  0  0  0  0  0  0  0  0  0  0
    7.0090   -3.7159    0.2491 H   0  0  0  0  0  0  0  0  0  0  0  0
    5.3888   -3.5082    0.9381 H   0  0  0  0  0  0  0  0  0  0  0  0
    5.1495   -1.6723   -0.2186 H   0  0  0  0  0  0  0  0  0  0  0  0
    4.6848   -5.5983    0.0942 H   0  0  0  0  0  0  0  0  0  0  0  0
   -0.6551   -1.6470   -1.2521 H   0  0  0  0  0  0  0  0  0  0  0  0
   -1.7852    0.2788   -2.1776 H   0  0  0  0  0  0  0  0  0  0  0  0
   -2.8182    2.9150   -3.9720 H   0  0  0  0  0  0  0  0  0  0  0  0
   -2.4968    0.8939   -5.3300 H   0  0  0  0  0  0  0  0  0  0  0  0
   -3.4977   -0.1072   -4.1311 H   0  0  0  0  0  0  0  0  0  0  0  0
    1.9780   -1.6284   -4.1153 H   0  0  0  0  0  0  0  0  0  0  0  0
    0.6665   -1.9695   -2.9876 H   0  0  0  0  0  0  0  0  0  0  0  0
    0.0148    1.0097   -3.2341 H   0  0  0  0  0  0  0  0  0  0  0  0
   -0.9681    2.9043   -2.2561 H   0  0  0  0  0  0  0  0  0  0  0  0
   -0.0404    3.7619   -0.9752 H   0  0  0  0  0  0  0  0  0  0  0  0
   -1.1151    2.4078   -0.5492 H   0  0  0  0  0  0  0  0  0  0  0  0
    3.9276   -0.7524   -1.7876 H   0  0  0  0  0  0  0  0  0  0  0  0
    5.6379    1.2328   -2.5819 H   0  0  0  0  0  0  0  0  0  0  0  0
    5.5913    0.1917   -4.0183 H   0  0  0  0  0  0  0  0  0  0  0  0
    6.1199   -0.4904   -2.4445 H   0  0  0  0  0  0  0  0  0  0  0  0
  2  1  2  0  0  0  0
  2  3  1  0  0  0  0
  3  4  1  0  0  0  0
  3 54  1  0  0  0  0
  4  5  1  0  0  0  0
  5 55  1  0  0  0  0
  5  6  2  0  0  0  0
  6 56  1  0  0  0  0
  7  6  1  0  0  0  0
  7  8  1  0  0  0  0
  8 58  1  0  0  0  0
  8  9  1  0  0  0  0
  9 10  1  0  0  0  0
  9 59  1  0  0  0  0
  9 60  1  0  0  0  0
 10 11  1  0  0  0  0
 11 12  2  0  0  0  0
 13 11  1  0  0  0  0
 13 14  1  0  0  0  0
 14 24  1  0  0  0  0
 15 14  2  0  0  0  0
 15 17  1  0  0  0  0
 16 15  1  0  0  0  0
 17 20  2  0  0  0  0
 18 17  1  0  0  0  0
 19 63  1  0  0  0  0
 19 18  1  0  0  0  0
 20 64  1  0  0  0  0
 20 21  1  0  0  0  0
 21 22  1  0  0  0  0
 22 23  1  0  0  0  0
 23 66  1  0  0  0  0
 23 67  1  0  0  0  0
 24 68  1  0  0  0  0
 24 21  2  0  0  0  0
 25 13  2  0  0  0  0
 26 27  1  0  0  0  0
 26 10  1  0  0  0  0
 27 25  1  0  0  0  0
 28 27  2  0  0  0  0
 29 28  1  0  0  0  0
 30 29  2  0  0  0  0
 30 37  1  0  0  0  0
 31 30  1  0  0  0  0
 32 33  1  0  0  0  0
 32 31  1  0  0  0  0
 33 74  1  6  0  0  0
 33 36  1  0  0  0  0
 33 34  1  0  0  0  0
 34 75  1  0  0  0  0
 34 76  1  0  0  0  0
 35 77  1  0  0  0  0
 35 34  1  0  0  0  0
 36 78  1  0  0  0  0
 37 26  2  0  0  0  0
 38  7  2  0  0  0  0
 39  4  2  0  0  0  0
 39 38  1  0  0  0  0
 40  2  1  0  0  0  0
 41 83  1  0  0  0  0
 41 40  2  0  0  0  0
 42 43  1  0  0  0  0
 43 85  1  0  0  0  0
 43 44  1  0  0  0  0
 44 46  1  0  0  0  0
 44 45  1  1  0  0  0
 46 47  1  0  0  0  0
 47 48  1  0  0  0  0
 47 49  2  0  0  0  0
 48 88  1  0  0  0  0
 48 89  1  0  0  0  0
 50 44  1  0  0  0  0
 50 51  1  0  0  0  0
 51 90  1  0  0  0  0
 52 51  1  0  0  0  0
 52 91  1  0  0  0  0
 52 93  1  0  0  0  0
 53 50  2  0  0  0  0
 57  8  1  0  0  0  0
 61 19  1  0  0  0  0
 62 19  1  0  0  0  0
 65 23  1  0  0  0  0
 69 25  1  0  0  0  0
 70 28  1  0  0  0  0
 71 31  1  0  0  0  0
 72 32  1  0  0  0  0
 73 32  1  0  0  0  0
 79 38  1  0  0  0  0
 80 39  1  0  0  0  0
 81 40  1  0  0  0  0
 82 41  1  0  0  0  0
 84 43  1  0  0  0  0
 86 46  1  0  0  0  0
 87 48  1  0  0  0  0
 92 52  1  0  0  0  0
M  END
