-1 1
 OpenBabel05232414493D

100103  0  0  1  0  0  0  0  0999 V2000
   10.0700  -11.4374   -3.6943 O   0  0  0  0  0  0  0  0  0  0  0  0
    8.9948  -11.6161   -3.1236 C   0  0  0  0  0  0  0  0  0  0  0  0
    8.9252  -12.8234   -2.3563 N   0  0  0  0  0  0  0  0  0  0  0  0
    7.8424  -13.7005   -2.1237 C   0  0  0  0  0  0  0  0  0  0  0  0
    6.7174  -13.7861   -2.9527 C   0  0  0  0  0  0  0  0  0  0  0  0
    5.6745  -14.6558   -2.6350 C   0  0  0  0  0  0  0  0  0  0  0  0
    5.7296  -15.4786   -1.5062 C   0  0  0  0  0  0  0  0  0  0  0  0
    4.5893  -16.3780   -1.0966 C   0  0  0  0  0  0  0  0  0  0  0  0
    3.7190  -15.7697    0.0266 C   0  0  0  0  0  0  0  0  0  0  0  0
    3.3003  -16.7805    0.9989 N   0  0  0  0  0  0  0  0  0  0  0  0
    2.1343  -17.5068    0.7206 C   0  0  0  0  0  0  0  0  0  0  0  0
    1.4793  -17.2426   -0.2729 O   0  0  0  0  0  0  0  0  0  0  0  0
    1.7854  -18.5825    1.6707 C   0  0  0  0  0  0  0  0  0  0  0  0
    0.5353  -19.3463    1.4252 C   0  0  0  0  0  0  0  0  0  0  0  0
   -0.4287  -19.5541    2.4146 C   0  0  0  0  0  0  0  0  0  0  0  0
   -0.2922  -18.8464    4.0057 Cl  0  0  0  0  0  0  0  0  0  0  0  0
   -1.5843  -20.3208    2.1462 C   0  0  0  0  0  0  0  0  0  0  0  0
   -2.4586  -20.4741    3.1585 O   0  0  0  0  0  0  0  0  0  0  0  0
   -3.6338  -21.2016    2.9388 C   0  0  0  0  0  0  0  0  0  0  0  0
   -1.7695  -20.8632    0.8803 C   0  0  0  0  0  0  0  0  0  0  0  0
   -0.8159  -20.6400   -0.1230 C   0  0  0  0  0  0  0  0  0  0  0  0
   -1.0942  -21.1907   -1.3243 O   0  0  0  0  0  0  0  0  0  0  0  0
   -0.2201  -20.9442   -2.3940 C   0  0  0  0  0  0  0  0  0  0  0  0
    0.3249  -19.8960    0.1485 C   0  0  0  0  0  0  0  0  0  0  0  0
    2.6298  -18.8894    2.6911 C   0  0  0  0  0  0  0  0  0  0  0  0
    4.1452  -17.0751    2.0459 C   0  0  0  0  0  0  0  0  0  0  0  0
    3.8334  -18.1579    2.9027 C   0  0  0  0  0  0  0  0  0  0  0  0
    4.7974  -18.4254    3.8880 C   0  0  0  0  0  0  0  0  0  0  0  0
    5.9045  -17.7351    4.0399 N   0  0  0  0  0  0  0  0  0  0  0  0
    6.0832  -16.6857    3.1909 C   0  0  0  0  0  0  0  0  0  0  0  0
    7.1709  -15.9243    3.3319 N   0  0  0  0  0  0  0  0  0  0  0  0
    8.2232  -16.1745    4.3055 C   0  0  0  0  0  0  0  0  0  0  0  0
    9.1527  -17.3130    3.8474 C   0  0  0  0  0  0  0  0  0  0  0  0
   10.0313  -16.8734    2.6694 C   0  0  0  0  0  0  0  0  0  0  0  0
   10.8224  -15.6851    2.9474 N   0  0  0  0  0  0  0  0  0  0  0  0
    9.9623  -14.5761    3.3408 C   0  0  0  0  0  0  0  0  0  0  0  0
    9.0427  -14.8957    4.5289 C   0  0  0  0  0  0  0  0  0  0  0  0
   11.9525  -15.9063    3.8163 C   0  0  0  0  0  0  0  0  0  0  0  0
    5.2361  -16.3486    2.2003 N   0  0  0  0  0  0  0  0  0  0  0  0
    6.8734  -15.4106   -0.7029 C   0  0  0  0  0  0  0  0  0  0  0  0
    7.9089  -14.5379   -1.0020 C   0  0  0  0  0  0  0  0  0  0  0  0
    7.8954  -10.6917   -3.1884 C   0  0  0  0  0  3  0  0  0  0  0  0
    6.7052  -10.6318   -2.4616 C   0  0  0  0  0  3  0  0  0  0  0  0
    6.7122   -9.2122   -0.6141 S   0  0  0  0  0  1  0  0  0  0  0  0
    8.2729   -9.8538    0.0291 C   0  0  0  0  0  0  0  0  0  0  0  0
    8.1503  -11.2740    0.6087 C   0  0  2  0  0  0  0  0  0  0  0  0
    8.0075  -11.9685   -0.2302 H   0  0  0  0  0  0  0  0  0  0  0  0
    7.0067  -11.3681    1.4831 N   0  0  0  0  0  0  0  0  0  0  0  0
    6.6479  -12.5266    2.0411 C   0  0  0  0  0  0  0  0  0  0  0  0
    5.3583  -12.5554    2.8260 C   0  0  0  0  0  0  0  0  0  0  0  0
    7.3497  -13.5374    1.9471 O   0  0  0  0  0  0  0  0  0  0  0  0
    9.4435  -11.6633    1.3285 C   0  0  0  0  0  0  0  0  0  0  0  0
   10.3257  -12.2792    0.5030 N   0  0  0  0  0  0  0  0  0  0  0  0
   11.6316  -12.7122    0.9298 C   0  0  0  0  0  0  0  0  0  0  0  0
    9.6695  -11.3985    2.4961 O   0  0  0  0  0  0  0  0  0  0  0  0
    9.8119  -13.3046   -2.4828 H   0  0  0  0  0  0  0  0  0  0  0  0
    6.6549  -13.1412   -3.8303 H   0  0  0  0  0  0  0  0  0  0  0  0
    4.7961  -14.6931   -3.2862 H   0  0  0  0  0  0  0  0  0  0  0  0
    5.0068  -17.3271   -0.7248 H   0  0  0  0  0  0  0  0  0  0  0  0
    3.9530  -16.6311   -1.9577 H   0  0  0  0  0  0  0  0  0  0  0  0
    2.8112  -15.3136   -0.3831 H   0  0  0  0  0  0  0  0  0  0  0  0
    4.2939  -15.0148    0.5720 H   0  0  0  0  0  0  0  0  0  0  0  0
   -4.1898  -21.1883    3.8840 H   0  0  0  0  0  0  0  0  0  0  0  0
   -3.4214  -22.2493    2.6627 H   0  0  0  0  0  0  0  0  0  0  0  0
   -4.2562  -20.7446    2.1499 H   0  0  0  0  0  0  0  0  0  0  0  0
   -2.6481  -21.4533    0.6256 H   0  0  0  0  0  0  0  0  0  0  0  0
   -0.6549  -21.4351   -3.2734 H   0  0  0  0  0  0  0  0  0  0  0  0
    0.7827  -21.3670   -2.2090 H   0  0  0  0  0  0  0  0  0  0  0  0
   -0.1171  -19.8645   -2.5961 H   0  0  0  0  0  0  0  0  0  0  0  0
    1.0674  -19.6963   -0.6197 H   0  0  0  0  0  0  0  0  0  0  0  0
    2.3940  -19.7177    3.3648 H   0  0  0  0  0  0  0  0  0  0  0  0
    4.6356  -19.2639    4.5785 H   0  0  0  0  0  0  0  0  0  0  0  0
    7.2078  -15.0726    2.7429 H   0  0  0  0  0  0  0  0  0  0  0  0
    7.7388  -16.4791    5.2463 H   0  0  0  0  0  0  0  0  0  0  0  0
    8.5480  -18.1940    3.5831 H   0  0  0  0  0  0  0  0  0  0  0  0
    9.7864  -17.6098    4.7006 H   0  0  0  0  0  0  0  0  0  0  0  0
    9.3827  -16.6537    1.8033 H   0  0  0  0  0  0  0  0  0  0  0  0
   10.7026  -17.6923    2.3632 H   0  0  0  0  0  0  0  0  0  0  0  0
    9.3458  -14.2906    2.4769 H   0  0  0  0  0  0  0  0  0  0  0  0
   10.5730  -13.6903    3.5660 H   0  0  0  0  0  0  0  0  0  0  0  0
    8.3738  -14.0405    4.7097 H   0  0  0  0  0  0  0  0  0  0  0  0
    9.6407  -15.0352    5.4449 H   0  0  0  0  0  0  0  0  0  0  0  0
   12.5992  -16.6932    3.3955 H   0  0  0  0  0  0  0  0  0  0  0  0
   11.7006  -16.2087    4.8572 H   0  0  0  0  0  0  0  0  0  0  0  0
   12.5498  -14.9833    3.8813 H   0  0  0  0  0  0  0  0  0  0  0  0
    6.9270  -16.0122    0.2073 H   0  0  0  0  0  0  0  0  0  0  0  0
    8.7620  -14.4601   -0.3249 H   0  0  0  0  0  0  0  0  0  0  0  0
    8.1178   -9.8678   -3.8714 H   0  0  0  0  0  0  0  0  0  0  0  0
    6.3614  -11.4940   -1.8881 H   0  0  0  0  0  0  0  0  0  0  0  0
    5.8872  -10.0472   -2.8865 H   0  0  0  0  0  0  0  0  0  0  0  0
    8.6655   -9.1719    0.7992 H   0  0  0  0  0  0  0  0  0  0  0  0
    9.0072   -9.8937   -0.7944 H   0  0  0  0  0  0  0  0  0  0  0  0
    6.3361  -10.6060    1.3666 H   0  0  0  0  0  0  0  0  0  0  0  0
    5.6011  -12.5825    3.8987 H   0  0  0  0  0  0  0  0  0  0  0  0
    4.8257  -13.4847    2.5810 H   0  0  0  0  0  0  0  0  0  0  0  0
    4.7154  -11.6870    2.6294 H   0  0  0  0  0  0  0  0  0  0  0  0
   10.0222  -12.4490   -0.4531 H   0  0  0  0  0  0  0  0  0  0  0  0
   12.3740  -12.5189    0.1411 H   0  0  0  0  0  0  0  0  0  0  0  0
   11.6484  -13.7857    1.1887 H   0  0  0  0  0  0  0  0  0  0  0  0
   11.9085  -12.1411    1.8265 H   0  0  0  0  0  0  0  0  0  0  0  0
  1  2  2  0  0  0  0
  2  3  1  0  0  0  0
  3  4  1  0  0  0  0
  4 41  1  0  0  0  0
  5  6  1  0  0  0  0
  5  4  2  0  0  0  0
  6  7  2  0  0  0  0
  7  8  1  0  0  0  0
  7 40  1  0  0  0  0
  8 59  1  0  0  0  0
  8  9  1  0  0  0  0
  9 62  1  0  0  0  0
  9 10  1  0  0  0  0
 10 26  1  0  0  0  0
 11 10  1  0  0  0  0
 11 13  1  0  0  0  0
 12 11  2  0  0  0  0
 13 25  2  0  0  0  0
 14 13  1  0  0  0  0
 14 15  1  0  0  0  0
 15 16  1  0  0  0  0
 17 15  2  0  0  0  0
 17 18  1  0  0  0  0
 19 18  1  0  0  0  0
 19 63  1  0  0  0  0
 20 17  1  0  0  0  0
 21 24  1  0  0  0  0
 21 20  2  0  0  0  0
 22 21  1  0  0  0  0
 23 68  1  0  0  0  0
 23 22  1  0  0  0  0
 24 14  2  0  0  0  0
 25 27  1  0  0  0  0
 25 71  1  0  0  0  0
 26 39  2  0  0  0  0
 26 27  1  0  0  0  0
 27 28  2  0  0  0  0
 28 29  1  0  0  0  0
 28 72  1  0  0  0  0
 30 31  1  0  0  0  0
 30 29  2  0  0  0  0
 31 32  1  0  0  0  0
 32 37  1  0  0  0  0
 32 74  1  0  0  0  0
 33 32  1  0  0  0  0
 33 76  1  0  0  0  0
 34 35  1  0  0  0  0
 34 33  1  0  0  0  0
 35 36  1  0  0  0  0
 35 38  1  0  0  0  0
 36 80  1  0  0  0  0
 36 37  1  0  0  0  0
 37 81  1  0  0  0  0
 37 82  1  0  0  0  0
 38 85  1  0  0  0  0
 38 84  1  0  0  0  0
 39 30  1  0  0  0  0
 40 86  1  0  0  0  0
 41 40  2  0  0  0  0
 41 87  1  0  0  0  0
 42  2  1  0  0  0  0
 42 43  1  0  0  0  0
 43 89  1  0  0  0  0
 44 45  1  0  0  0  0
 45 46  1  0  0  0  0
 45 91  1  0  0  0  0
 46 47  1  6  0  0  0
 46 52  1  0  0  0  0
 46 48  1  0  0  0  0
 48 49  1  0  0  0  0
 49 50  1  0  0  0  0
 50 94  1  0  0  0  0
 51 49  2  0  0  0  0
 52 55  2  0  0  0  0
 53 54  1  0  0  0  0
 53 52  1  0  0  0  0
 54 99  1  0  0  0  0
 54100  1  0  0  0  0
 56  3  1  0  0  0  0
 57  5  1  0  0  0  0
 58  6  1  0  0  0  0
 60  8  1  0  0  0  0
 61  9  1  0  0  0  0
 64 19  1  0  0  0  0
 65 19  1  0  0  0  0
 66 20  1  0  0  0  0
 67 23  1  0  0  0  0
 69 23  1  0  0  0  0
 70 24  1  0  0  0  0
 73 31  1  0  0  0  0
 75 33  1  0  0  0  0
 77 34  1  0  0  0  0
 78 34  1  0  0  0  0
 79 36  1  0  0  0  0
 83 38  1  0  0  0  0
 88 42  1  0  0  0  0
 90 43  1  0  0  0  0
 92 45  1  0  0  0  0
 93 48  1  0  0  0  0
 95 50  1  0  0  0  0
 96 50  1  0  0  0  0
 97 53  1  0  0  0  0
 98 54  1  0  0  0  0
M  END
