-1 1
 OpenBabel05192410563D

100104  0  0  1  0  0  0  0  0999 V2000
    4.6695    4.1595   -4.8356 O   0  0  0  0  0  0  0  0  0  0  0  0
    3.6372    4.0807   -4.1523 C   0  0  0  0  0  0  0  0  0  0  0  0
    3.6155    2.8897   -3.2945 N   0  0  0  0  0  0  0  0  0  0  0  0
    2.5671    1.9717   -3.1017 C   0  0  0  0  0  0  0  0  0  0  0  0
    1.3886    1.9570   -3.8622 C   0  0  0  0  0  0  0  0  0  0  0  0
    0.3675    1.0554   -3.5659 C   0  0  0  0  0  0  0  0  0  0  0  0
    0.4847    0.1327   -2.5223 C   0  0  0  0  0  0  0  0  0  0  0  0
   -0.6448   -0.7821   -2.1196 C   0  0  0  0  0  0  0  0  0  0  0  0
   -1.5429   -0.1717   -1.0196 C   0  0  0  0  0  0  0  0  0  0  0  0
   -1.9666   -1.1773   -0.0434 N   0  0  0  0  0  0  0  0  0  0  0  0
   -3.1348   -1.9019   -0.3158 C   0  0  0  0  0  0  0  0  0  0  0  0
   -3.7969   -1.6365   -1.3041 O   0  0  0  0  0  0  0  0  0  0  0  0
   -3.4780   -2.9798    0.6346 C   0  0  0  0  0  0  0  0  0  0  0  0
   -4.7276   -3.7453    0.3921 C   0  0  0  0  0  0  0  0  0  0  0  0
   -5.6881   -3.9570    1.3840 C   0  0  0  0  0  0  0  0  0  0  0  0
   -5.5479   -3.2520    2.9763 Cl  0  0  0  0  0  0  0  0  0  0  0  0
   -6.8430   -4.7254    1.1178 C   0  0  0  0  0  0  0  0  0  0  0  0
   -7.7139   -4.8825    2.1326 O   0  0  0  0  0  0  0  0  0  0  0  0
   -8.8879   -5.6126    1.9151 C   0  0  0  0  0  0  0  0  0  0  0  0
   -7.0312   -5.2656   -0.1487 C   0  0  0  0  0  0  0  0  0  0  0  0
   -6.0811   -5.0384   -1.1545 C   0  0  0  0  0  0  0  0  0  0  0  0
   -6.3622   -5.5869   -2.3561 O   0  0  0  0  0  0  0  0  0  0  0  0
   -5.4918   -5.3364   -3.4280 C   0  0  0  0  0  0  0  0  0  0  0  0
   -4.9409   -4.2928   -0.8851 C   0  0  0  0  0  0  0  0  0  0  0  0
   -2.6294   -3.2874    1.6511 C   0  0  0  0  0  0  0  0  0  0  0  0
   -1.1193   -1.4708    1.0010 C   0  0  0  0  0  0  0  0  0  0  0  0
   -1.4258   -2.5543    1.8588 C   0  0  0  0  0  0  0  0  0  0  0  0
   -0.4576   -2.8205    2.8400 C   0  0  0  0  0  0  0  0  0  0  0  0
    0.6494   -2.1284    2.9869 N   0  0  0  0  0  0  0  0  0  0  0  0
    0.8219   -1.0790    2.1374 C   0  0  0  0  0  0  0  0  0  0  0  0
    1.9091   -0.3148    2.2748 N   0  0  0  0  0  0  0  0  0  0  0  0
    2.9658   -0.5623    3.2438 C   0  0  0  0  0  0  0  0  0  0  0  0
    3.9091   -1.6841    2.7727 C   0  0  0  0  0  0  0  0  0  0  0  0
    4.7815   -1.2206    1.5994 C   0  0  0  0  0  0  0  0  0  0  0  0
    5.5573   -0.0255    1.8910 N   0  0  0  0  0  0  0  0  0  0  0  0
    4.6833    1.0680    2.2958 C   0  0  0  0  0  0  0  0  0  0  0  0
    3.7691    0.7239    3.4811 C   0  0  0  0  0  0  0  0  0  0  0  0
    6.6908   -0.2411    2.7567 C   0  0  0  0  0  0  0  0  0  0  0  0
   -0.0294   -0.7414    1.1518 N   0  0  0  0  0  0  0  0  0  0  0  0
    1.6766    0.1301   -1.7887 C   0  0  0  0  0  0  0  0  0  0  0  0
    2.6962    1.0272   -2.0700 C   0  0  0  0  0  0  0  0  0  0  0  0
    2.5817    5.0068   -4.1163 C   0  0  0  0  0  3  0  0  0  0  0  0
    1.4193    5.0907   -3.2303 C   0  0  0  0  0  0  0  0  0  0  0  0
    1.5040    6.3781   -1.7899 S   0  0  0  0  0  0  0  0  0  0  0  0
    3.0034    5.7747   -0.9846 C   0  0  0  0  0  0  0  0  0  0  0  0
    2.8612    4.3674   -0.3964 C   0  0  2  0  0  0  0  0  0  0  0  0
    2.7337    3.6629   -1.2282 H   0  0  0  0  0  0  0  0  0  0  0  0
    1.7106    4.2740    0.4707 N   0  0  0  0  0  0  0  0  0  0  0  0
    1.3528    3.1006    1.0106 C   0  0  0  0  0  0  0  0  0  0  0  0
    0.0632    3.0523    1.7945 C   0  0  0  0  0  0  0  0  0  0  0  0
    2.0604    2.1007    0.8969 O   0  0  0  0  0  0  0  0  0  0  0  0
    4.1561    3.9855    0.3290 C   0  0  0  0  0  0  0  0  0  0  0  0
    5.0313    3.3703   -0.4982 N   0  0  0  0  0  0  0  0  0  0  0  0
    6.3419    2.9408   -0.0825 C   0  0  0  0  0  0  0  0  0  0  0  0
    4.3763    4.2617    1.4958 O   0  0  0  0  0  0  0  0  0  0  0  0
    4.5019    2.4245   -3.4792 H   0  0  0  0  0  0  0  0  0  0  0  0
    1.2804    2.6801   -4.6724 H   0  0  0  0  0  0  0  0  0  0  0  0
   -0.5475    1.0744   -4.1665 H   0  0  0  0  0  0  0  0  0  0  0  0
   -0.2185   -1.7194   -1.7289 H   0  0  0  0  0  0  0  0  0  0  0  0
   -1.2650   -1.0563   -2.9866 H   0  0  0  0  0  0  0  0  0  0  0  0
   -2.4495    0.2687   -1.4484 H   0  0  0  0  0  0  0  0  0  0  0  0
   -0.9841    0.5949   -0.4740 H   0  0  0  0  0  0  0  0  0  0  0  0
   -9.4409   -5.6026    2.8621 H   0  0  0  0  0  0  0  0  0  0  0  0
   -8.6736   -6.6592    1.6362 H   0  0  0  0  0  0  0  0  0  0  0  0
   -9.5140   -5.1557    1.1291 H   0  0  0  0  0  0  0  0  0  0  0  0
   -7.9094   -5.8569   -0.4017 H   0  0  0  0  0  0  0  0  0  0  0  0
   -5.9285   -5.8262   -4.3072 H   0  0  0  0  0  0  0  0  0  0  0  0
   -4.4877   -5.7578   -3.2471 H   0  0  0  0  0  0  0  0  0  0  0  0
   -5.3915   -4.2561   -3.6280 H   0  0  0  0  0  0  0  0  0  0  0  0
   -4.2013   -4.0898   -1.6552 H   0  0  0  0  0  0  0  0  0  0  0  0
   -2.8616   -4.1169    2.3245 H   0  0  0  0  0  0  0  0  0  0  0  0
   -0.6151   -3.6592    3.5312 H   0  0  0  0  0  0  0  0  0  0  0  0
    1.9444    0.5290    1.6788 H   0  0  0  0  0  0  0  0  0  0  0  0
    2.4855   -0.8832    4.1811 H   0  0  0  0  0  0  0  0  0  0  0  0
    3.3155   -2.5695    2.4984 H   0  0  0  0  0  0  0  0  0  0  0  0
    4.5469   -1.9828    3.6223 H   0  0  0  0  0  0  0  0  0  0  0  0
    4.1300   -0.9994    0.7358 H   0  0  0  0  0  0  0  0  0  0  0  0
    5.4631   -2.0272    1.2836 H   0  0  0  0  0  0  0  0  0  0  0  0
    4.0638    1.3531    1.4337 H   0  0  0  0  0  0  0  0  0  0  0  0
    5.2826    1.9592    2.5300 H   0  0  0  0  0  0  0  0  0  0  0  0
    3.0893    1.5681    3.6732 H   0  0  0  0  0  0  0  0  0  0  0  0
    4.3705    0.5819    4.3946 H   0  0  0  0  0  0  0  0  0  0  0  0
    7.3469   -1.0155    2.3274 H   0  0  0  0  0  0  0  0  0  0  0  0
    6.4436   -0.5572    3.7947 H   0  0  0  0  0  0  0  0  0  0  0  0
    7.2766    0.6886    2.8304 H   0  0  0  0  0  0  0  0  0  0  0  0
    1.7856   -0.5559   -0.9446 H   0  0  0  0  0  0  0  0  0  0  0  0
    3.5919    1.0413   -1.4444 H   0  0  0  0  0  0  0  0  0  0  0  0
    2.7295    5.8371   -4.8125 H   0  0  0  0  0  0  0  0  0  0  0  0
    1.1501    4.1554   -2.7239 H   0  0  0  0  0  0  0  0  0  0  0  0
    0.5113    5.4585   -3.7350 H   0  0  0  0  0  0  0  0  0  0  0  0
    3.2785    6.4935   -0.1978 H   0  0  0  0  0  0  0  0  0  0  0  0
    3.8051    5.7512   -1.7395 H   0  0  0  0  0  0  0  0  0  0  0  0
    1.0419    5.0361    0.4027 H   0  0  0  0  0  0  0  0  0  0  0  0
    0.3060    3.0152    2.8669 H   0  0  0  0  0  0  0  0  0  0  0  0
   -0.4591    2.1202    1.5384 H   0  0  0  0  0  0  0  0  0  0  0  0
   -0.5902    3.9151    1.6078 H   0  0  0  0  0  0  0  0  0  0  0  0
    4.7128    3.1916   -1.4519 H   0  0  0  0  0  0  0  0  0  0  0  0
    7.0764    3.1393   -0.8772 H   0  0  0  0  0  0  0  0  0  0  0  0
    6.3633    1.8661    0.1704 H   0  0  0  0  0  0  0  0  0  0  0  0
    6.6252    3.5087    0.8143 H   0  0  0  0  0  0  0  0  0  0  0  0
  1  2  2  0  0  0  0
  2 42  1  0  0  0  0
  2  3  1  0  0  0  0
  3  4  1  0  0  0  0
  4 41  1  0  0  0  0
  5  6  1  0  0  0  0
  5  4  2  0  0  0  0
  6  7  2  0  0  0  0
  7  8  1  0  0  0  0
  7 40  1  0  0  0  0
  8 59  1  0  0  0  0
  8  9  1  0  0  0  0
  9 62  1  0  0  0  0
  9 10  1  0  0  0  0
 10 26  1  0  0  0  0
 11 10  1  0  0  0  0
 11 13  1  0  0  0  0
 12 11  2  0  0  0  0
 13 25  2  0  0  0  0
 14 13  1  0  0  0  0
 14 15  1  0  0  0  0
 15 16  1  0  0  0  0
 17 15  2  0  0  0  0
 17 18  1  0  0  0  0
 19 18  1  0  0  0  0
 19 63  1  0  0  0  0
 20 17  1  0  0  0  0
 21 24  1  0  0  0  0
 21 20  2  0  0  0  0
 22 21  1  0  0  0  0
 23 68  1  0  0  0  0
 23 22  1  0  0  0  0
 24 14  2  0  0  0  0
 25 27  1  0  0  0  0
 25 71  1  0  0  0  0
 26 39  2  0  0  0  0
 26 27  1  0  0  0  0
 27 28  2  0  0  0  0
 28 29  1  0  0  0  0
 28 72  1  0  0  0  0
 30 31  1  0  0  0  0
 30 29  2  0  0  0  0
 31 32  1  0  0  0  0
 32 37  1  0  0  0  0
 32 74  1  0  0  0  0
 33 32  1  0  0  0  0
 33 76  1  0  0  0  0
 34 35  1  0  0  0  0
 34 33  1  0  0  0  0
 35 36  1  0  0  0  0
 35 38  1  0  0  0  0
 36 80  1  0  0  0  0
 36 37  1  0  0  0  0
 37 81  1  0  0  0  0
 37 82  1  0  0  0  0
 38 85  1  0  0  0  0
 38 84  1  0  0  0  0
 39 30  1  0  0  0  0
 40 86  1  0  0  0  0
 41 40  2  0  0  0  0
 41 87  1  0  0  0  0
 42 43  1  0  0  0  0
 43 89  1  0  0  0  0
 43 44  1  0  0  0  0
 44 45  1  0  0  0  0
 45 46  1  0  0  0  0
 45 91  1  0  0  0  0
 46 47  1  6  0  0  0
 46 52  1  0  0  0  0
 46 48  1  0  0  0  0
 48 49  1  0  0  0  0
 49 50  1  0  0  0  0
 50 94  1  0  0  0  0
 51 49  2  0  0  0  0
 52 55  2  0  0  0  0
 53 54  1  0  0  0  0
 53 52  1  0  0  0  0
 54 99  1  0  0  0  0
 54100  1  0  0  0  0
 56  3  1  0  0  0  0
 57  5  1  0  0  0  0
 58  6  1  0  0  0  0
 60  8  1  0  0  0  0
 61  9  1  0  0  0  0
 64 19  1  0  0  0  0
 65 19  1  0  0  0  0
 66 20  1  0  0  0  0
 67 23  1  0  0  0  0
 69 23  1  0  0  0  0
 70 24  1  0  0  0  0
 73 31  1  0  0  0  0
 75 33  1  0  0  0  0
 77 34  1  0  0  0  0
 78 34  1  0  0  0  0
 79 36  1  0  0  0  0
 83 38  1  0  0  0  0
 88 42  1  0  0  0  0
 90 43  1  0  0  0  0
 92 45  1  0  0  0  0
 93 48  1  0  0  0  0
 95 50  1  0  0  0  0
 96 50  1  0  0  0  0
 97 53  1  0  0  0  0
 98 54  1  0  0  0  0
M  END
