-1 1
 OpenBabel05232414493D

108112  0  0  1  0  0  0  0  0999 V2000
    5.2376   -6.9358   -2.3581 O   0  0  0  0  0  0  0  0  0  0  0  0
    4.8463   -7.3268   -1.2620 C   0  0  0  0  0  0  0  0  0  0  0  0
    5.0720   -8.7195   -0.9234 N   0  0  0  0  0  0  0  0  0  0  0  0
    4.0167   -9.6349   -0.9010 C   0  0  0  0  0  0  0  0  0  0  0  0
    2.7103   -9.2955   -1.2884 C   0  0  0  0  0  0  0  0  0  0  0  0
    1.7144  -10.2632   -1.3459 C   0  0  0  0  0  0  0  0  0  0  0  0
    1.9530  -11.5943   -0.9907 C   0  0  0  0  0  0  0  0  0  0  0  0
    0.8835  -12.6518   -1.1199 C   0  0  0  0  0  0  0  0  0  0  0  0
    1.2937  -13.7311   -2.1227 C   0  0  0  0  0  0  0  0  0  0  0  0
    0.2749  -14.7636   -2.3376 N   0  0  0  0  0  0  0  0  0  0  0  0
   -0.5125  -14.6709   -3.5011 C   0  0  0  0  0  0  0  0  0  0  0  0
   -0.3870  -13.7201   -4.2477 O   0  0  0  0  0  0  0  0  0  0  0  0
   -1.4629  -15.7769   -3.7442 C   0  0  0  0  0  0  0  0  0  0  0  0
   -2.2979  -15.7054   -4.9709 C   0  0  0  0  0  0  0  0  0  0  0  0
   -2.3879  -16.7553   -5.8869 C   0  0  0  0  0  0  0  0  0  0  0  0
   -1.4457  -18.2171   -5.7194 Cl  0  0  0  0  0  0  0  0  0  0  0  0
   -3.2243  -16.6518   -7.0205 C   0  0  0  0  0  0  0  0  0  0  0  0
   -3.2544  -17.7113   -7.8499 O   0  0  0  0  0  0  0  0  0  0  0  0
   -4.0412  -17.6488   -9.0064 C   0  0  0  0  0  0  0  0  0  0  0  0
   -3.9544  -15.4881   -7.2297 C   0  0  0  0  0  0  0  0  0  0  0  0
   -3.8514  -14.4221   -6.3245 C   0  0  0  0  0  0  0  0  0  0  0  0
   -4.5811  -13.3291   -6.6258 O   0  0  0  0  0  0  0  0  0  0  0  0
   -4.4597  -12.1916   -5.8105 C   0  0  0  0  0  0  0  0  0  0  0  0
   -3.0369  -14.5332   -5.2044 C   0  0  0  0  0  0  0  0  0  0  0  0
   -1.5711  -16.7924   -2.8513 C   0  0  0  0  0  0  0  0  0  0  0  0
    0.1236  -15.7610   -1.4110 C   0  0  0  0  0  0  0  0  0  0  0  0
   -0.7842  -16.8152   -1.6610 C   0  0  0  0  0  0  0  0  0  0  0  0
   -0.8160  -17.8201   -0.6828 C   0  0  0  0  0  0  0  0  0  0  0  0
   -0.1095  -17.7815    0.4254 N   0  0  0  0  0  0  0  0  0  0  0  0
    0.6697  -16.6845    0.5926 C   0  0  0  0  0  0  0  0  0  0  0  0
    1.3225  -16.6019    1.7750 N   0  0  0  0  0  0  0  0  0  0  0  0
    1.8445  -15.3642    2.3182 C   0  0  0  0  0  0  0  0  0  0  0  0
    0.7265  -14.4896    2.9000 C   0  0  0  0  0  0  0  0  0  0  0  0
    1.2304  -13.3810    3.6796 N   0  0  0  0  0  0  0  0  0  0  0  0
    1.7435  -12.2548    2.8940 C   0  0  0  0  0  0  0  0  0  0  0  0
    0.6319  -11.3670    2.3307 C   0  0  0  0  0  0  0  0  0  0  0  0
   -0.3213  -10.9209    3.3384 N   0  0  0  0  0  0  0  0  0  0  0  0
   -0.8274  -12.0390    4.1143 C   0  0  0  0  0  0  0  0  0  0  0  0
    0.3051  -12.8969    4.6974 C   0  0  0  0  0  0  0  0  0  0  0  0
    0.0676   -9.7596    4.1292 C   0  0  0  0  0  0  0  0  0  0  0  0
   -1.1060   -8.8242    4.3959 C   0  0  0  0  0  0  0  0  0  0  0  0
    0.8409  -15.7039   -0.2932 N   0  0  0  0  0  0  0  0  0  0  0  0
    3.2452  -11.9198   -0.5604 C   0  0  0  0  0  0  0  0  0  0  0  0
    4.2559  -10.9650   -0.5149 C   0  0  0  0  0  0  0  0  0  0  0  0
    4.2305   -6.5534   -0.2371 C   0  0  0  0  0  3  0  0  0  0  0  0
    4.2309   -6.9387    1.1136 C   0  0  0  0  0  0  0  0  0  0  0  0
    2.4844   -7.9926    2.0275 S   0  0  0  0  0  0  0  0  0  0  0  0
    1.4373   -6.5410    2.3291 C   0  0  0  0  0  0  0  0  0  0  0  0
    0.5674   -6.1136    1.1255 C   0  0  2  0  0  0  0  0  0  0  0  0
    1.2162   -6.1141    0.2331 H   0  0  0  0  0  0  0  0  0  0  0  0
   -0.0086   -4.8027    1.3159 N   0  0  0  0  0  0  0  0  0  0  0  0
    0.6931   -3.6498    1.2514 C   0  0  0  0  0  0  0  0  0  0  0  0
   -0.1355   -2.3833    1.4078 C   0  0  0  0  0  0  0  0  0  0  0  0
    1.8983   -3.5971    1.0787 O   0  0  0  0  0  0  0  0  0  0  0  0
   -0.6256   -7.0589    0.9070 C   0  0  0  0  0  0  0  0  0  0  0  0
   -0.3165   -8.3210    0.5633 N   0  0  0  0  0  0  0  0  0  0  0  0
   -1.3276   -9.3477    0.4705 C   0  0  0  0  0  0  0  0  0  0  0  0
   -1.7783   -6.6604    1.0548 O   0  0  0  0  0  0  0  0  0  0  0  0
    5.8686   -9.0726   -1.4460 H   0  0  0  0  0  0  0  0  0  0  0  0
    2.4895   -8.2660   -1.5720 H   0  0  0  0  0  0  0  0  0  0  0  0
    0.7215   -9.9700   -1.6983 H   0  0  0  0  0  0  0  0  0  0  0  0
   -0.0594  -12.1910   -1.4532 H   0  0  0  0  0  0  0  0  0  0  0  0
    0.6902  -13.1341   -0.1485 H   0  0  0  0  0  0  0  0  0  0  0  0
    2.2026  -14.2388   -1.7758 H   0  0  0  0  0  0  0  0  0  0  0  0
    1.4883  -13.2766   -3.1000 H   0  0  0  0  0  0  0  0  0  0  0  0
   -3.9041  -18.6037   -9.5279 H   0  0  0  0  0  0  0  0  0  0  0  0
   -3.7241  -16.8274   -9.6720 H   0  0  0  0  0  0  0  0  0  0  0  0
   -5.1112  -17.5212   -8.7670 H   0  0  0  0  0  0  0  0  0  0  0  0
   -4.6044  -15.3600   -8.0935 H   0  0  0  0  0  0  0  0  0  0  0  0
   -5.0877  -11.4143   -6.2624 H   0  0  0  0  0  0  0  0  0  0  0  0
   -3.4176  -11.8331   -5.7648 H   0  0  0  0  0  0  0  0  0  0  0  0
   -4.8153  -12.3851   -4.7838 H   0  0  0  0  0  0  0  0  0  0  0  0
   -2.9296  -13.7120   -4.5001 H   0  0  0  0  0  0  0  0  0  0  0  0
   -2.2787  -17.6063   -3.0288 H   0  0  0  0  0  0  0  0  0  0  0  0
   -1.4646  -18.6928   -0.8314 H   0  0  0  0  0  0  0  0  0  0  0  0
    1.0661  -17.3350    2.4243 H   0  0  0  0  0  0  0  0  0  0  0  0
    2.3853  -14.8356    1.5216 H   0  0  0  0  0  0  0  0  0  0  0  0
    2.5655  -15.6005    3.1137 H   0  0  0  0  0  0  0  0  0  0  0  0
    0.1264  -15.1288    3.5696 H   0  0  0  0  0  0  0  0  0  0  0  0
    0.0491  -14.1964    2.0688 H   0  0  0  0  0  0  0  0  0  0  0  0
    2.3783  -12.6237    2.0744 H   0  0  0  0  0  0  0  0  0  0  0  0
    2.3967  -11.6494    3.5453 H   0  0  0  0  0  0  0  0  0  0  0  0
    0.0717  -11.9217    1.5568 H   0  0  0  0  0  0  0  0  0  0  0  0
    1.0820  -10.4953    1.8350 H   0  0  0  0  0  0  0  0  0  0  0  0
   -1.4646  -12.6685    3.4649 H   0  0  0  0  0  0  0  0  0  0  0  0
   -1.4784  -11.6625    4.9198 H   0  0  0  0  0  0  0  0  0  0  0  0
   -0.1017  -13.7551    5.2581 H   0  0  0  0  0  0  0  0  0  0  0  0
    0.8828  -12.2913    5.4176 H   0  0  0  0  0  0  0  0  0  0  0  0
    0.8507   -9.2150    3.5792 H   0  0  0  0  0  0  0  0  0  0  0  0
    0.5328  -10.0498    5.0953 H   0  0  0  0  0  0  0  0  0  0  0  0
   -1.4986   -8.4084    3.4556 H   0  0  0  0  0  0  0  0  0  0  0  0
   -0.7931   -7.9847    5.0368 H   0  0  0  0  0  0  0  0  0  0  0  0
   -1.9336   -9.3436    4.9071 H   0  0  0  0  0  0  0  0  0  0  0  0
    3.4735  -12.9467   -0.2557 H   0  0  0  0  0  0  0  0  0  0  0  0
    5.2569  -11.2414   -0.1741 H   0  0  0  0  0  0  0  0  0  0  0  0
    3.8726   -5.5597   -0.5157 H   0  0  0  0  0  0  0  0  0  0  0  0
    4.1614   -6.1355    1.8534 H   0  0  0  0  0  0  0  0  0  0  0  0
    4.9139   -7.7439    1.3965 H   0  0  0  0  0  0  0  0  0  0  0  0
    2.0860   -5.6847    2.5678 H   0  0  0  0  0  0  0  0  0  0  0  0
    0.7850   -6.7166    3.2010 H   0  0  0  0  0  0  0  0  0  0  0  0
   -1.0222   -4.8153    1.3969 H   0  0  0  0  0  0  0  0  0  0  0  0
    0.3105   -1.7712    2.2039 H   0  0  0  0  0  0  0  0  0  0  0  0
   -1.1927   -2.5721    1.6408 H   0  0  0  0  0  0  0  0  0  0  0  0
   -0.0690   -1.8059    0.4743 H   0  0  0  0  0  0  0  0  0  0  0  0
    0.6730   -8.5814    0.6457 H   0  0  0  0  0  0  0  0  0  0  0  0
   -2.2711   -8.8892    0.1474 H   0  0  0  0  0  0  0  0  0  0  0  0
   -1.0186  -10.1037   -0.2648 H   0  0  0  0  0  0  0  0  0  0  0  0
   -1.4858   -9.8513    1.4395 H   0  0  0  0  0  0  0  0  0  0  0  0
  1  2  2  0  0  0  0
  2  3  1  0  0  0  0
  2 45  1  0  0  0  0
  3  4  1  0  0  0  0
  4 44  1  0  0  0  0
  5  4  2  0  0  0  0
  6  5  1  0  0  0  0
  6  7  2  0  0  0  0
  7 43  1  0  0  0  0
  8  7  1  0  0  0  0
  8 63  1  0  0  0  0
  9 64  1  0  0  0  0
  9  8  1  0  0  0  0
 10  9  1  0  0  0  0
 10 26  1  0  0  0  0
 11 10  1  0  0  0  0
 12 11  2  0  0  0  0
 13 11  1  0  0  0  0
 13 25  2  0  0  0  0
 14 13  1  0  0  0  0
 15 16  1  0  0  0  0
 15 14  2  0  0  0  0
 17 15  1  0  0  0  0
 18 17  1  0  0  0  0
 19 68  1  0  0  0  0
 19 18  1  0  0  0  0
 20 17  2  0  0  0  0
 20 21  1  0  0  0  0
 21 24  2  0  0  0  0
 22 21  1  0  0  0  0
 22 23  1  0  0  0  0
 23 71  1  0  0  0  0
 23 72  1  0  0  0  0
 24 14  1  0  0  0  0
 24 73  1  0  0  0  0
 25 27  1  0  0  0  0
 26 42  2  0  0  0  0
 27 26  1  0  0  0  0
 27 28  2  0  0  0  0
 28 29  1  0  0  0  0
 29 30  2  0  0  0  0
 30 31  1  0  0  0  0
 31 32  1  0  0  0  0
 31 76  1  0  0  0  0
 32 33  1  0  0  0  0
 32 78  1  0  0  0  0
 33 79  1  0  0  0  0
 33 34  1  0  0  0  0
 34 39  1  0  0  0  0
 35 82  1  0  0  0  0
 35 34  1  0  0  0  0
 36 35  1  0  0  0  0
 36 37  1  0  0  0  0
 37 38  1  0  0  0  0
 37 40  1  0  0  0  0
 38 39  1  0  0  0  0
 38 86  1  0  0  0  0
 39 87  1  0  0  0  0
 39 88  1  0  0  0  0
 40 41  1  0  0  0  0
 40 90  1  0  0  0  0
 41 93  1  0  0  0  0
 41 92  1  0  0  0  0
 42 30  1  0  0  0  0
 43 44  2  0  0  0  0
 43 94  1  0  0  0  0
 44 95  1  0  0  0  0
 45 46  1  0  0  0  0
 46 98  1  0  0  0  0
 46 97  1  0  0  0  0
 46 47  1  0  0  0  0
 47 48  1  0  0  0  0
 48 99  1  0  0  0  0
 48100  1  0  0  0  0
 49 50  1  6  0  0  0
 49 51  1  0  0  0  0
 49 48  1  0  0  0  0
 51101  1  0  0  0  0
 52 51  1  0  0  0  0
 52 53  1  0  0  0  0
 53103  1  0  0  0  0
 53102  1  0  0  0  0
 54 52  2  0  0  0  0
 55 58  2  0  0  0  0
 55 49  1  0  0  0  0
 56105  1  0  0  0  0
 56 55  1  0  0  0  0
 57 56  1  0  0  0  0
 57108  1  0  0  0  0
 59  3  1  0  0  0  0
 60  5  1  0  0  0  0
 61  6  1  0  0  0  0
 62  8  1  0  0  0  0
 65  9  1  0  0  0  0
 66 19  1  0  0  0  0
 67 19  1  0  0  0  0
 69 20  1  0  0  0  0
 70 23  1  0  0  0  0
 74 25  1  0  0  0  0
 75 28  1  0  0  0  0
 77 32  1  0  0  0  0
 80 33  1  0  0  0  0
 81 35  1  0  0  0  0
 83 36  1  0  0  0  0
 84 36  1  0  0  0  0
 85 38  1  0  0  0  0
 89 40  1  0  0  0  0
 91 41  1  0  0  0  0
 96 45  1  0  0  0  0
104 53  1  0  0  0  0
106 57  1  0  0  0  0
107 57  1  0  0  0  0
M  END
