-1 1
 OpenBabel05192410563D

108112  0  0  1  0  0  0  0  0999 V2000
    1.4471    5.4191   -0.6869 O   0  0  0  0  0  0  0  0  0  0  0  0
    2.3607    5.0314    0.0635 C   0  0  0  0  0  0  0  0  0  0  0  0
    2.6787    3.6356    0.0944 N   0  0  0  0  0  0  0  0  0  0  0  0
    1.9230    2.5669   -0.3295 C   0  0  0  0  0  0  0  0  0  0  0  0
    0.7026    2.6888   -1.0248 C   0  0  0  0  0  0  0  0  0  0  0  0
   -0.0327    1.5539   -1.3497 C   0  0  0  0  0  0  0  0  0  0  0  0
    0.3906    0.2622   -1.0200 C   0  0  0  0  0  0  0  0  0  0  0  0
   -0.4446   -0.9577   -1.3258 C   0  0  0  0  0  0  0  0  0  0  0  0
    0.3359   -2.0259   -2.0940 C   0  0  0  0  0  0  0  0  0  0  0  0
   -0.3511   -3.3199   -2.1230 N   0  0  0  0  0  0  0  0  0  0  0  0
   -1.0769   -3.6573   -3.2791 C   0  0  0  0  0  0  0  0  0  0  0  0
   -1.1445   -2.8737   -4.2070 O   0  0  0  0  0  0  0  0  0  0  0  0
   -1.7269   -4.9843   -3.2828 C   0  0  0  0  0  0  0  0  0  0  0  0
   -2.4861   -5.3754   -4.4984 C   0  0  0  0  0  0  0  0  0  0  0  0
   -2.2794   -6.5870   -5.1609 C   0  0  0  0  0  0  0  0  0  0  0  0
   -1.0347   -7.7112   -4.6722 Cl  0  0  0  0  0  0  0  0  0  0  0  0
   -3.0530   -6.9309   -6.2917 C   0  0  0  0  0  0  0  0  0  0  0  0
   -2.7906   -8.1191   -6.8668 O   0  0  0  0  0  0  0  0  0  0  0  0
   -3.5071   -8.4960   -8.0091 C   0  0  0  0  0  0  0  0  0  0  0  0
   -4.0206   -6.0475   -6.7548 C   0  0  0  0  0  0  0  0  0  0  0  0
   -4.2175   -4.8198   -6.1065 C   0  0  0  0  0  0  0  0  0  0  0  0
   -5.1643   -4.0227   -6.6437 O   0  0  0  0  0  0  0  0  0  0  0  0
   -5.3602   -2.7458   -6.0940 C   0  0  0  0  0  0  0  0  0  0  0  0
   -3.4627   -4.4909   -4.9877 C   0  0  0  0  0  0  0  0  0  0  0  0
   -1.6527   -5.7831   -2.1878 C   0  0  0  0  0  0  0  0  0  0  0  0
   -0.2991   -4.1157   -1.0083 C   0  0  0  0  0  0  0  0  0  0  0  0
   -0.9425   -5.3737   -1.0208 C   0  0  0  0  0  0  0  0  0  0  0  0
   -0.8141   -6.1217    0.1603 C   0  0  0  0  0  0  0  0  0  0  0  0
   -0.1778   -5.6952    1.2269 N   0  0  0  0  0  0  0  0  0  0  0  0
    0.3691   -4.4544    1.1378 C   0  0  0  0  0  0  0  0  0  0  0  0
    0.9762   -4.0079    2.2553 N   0  0  0  0  0  0  0  0  0  0  0  0
    1.4328   -2.6527    2.4859 C   0  0  0  0  0  0  0  0  0  0  0  0
    0.2989   -1.6676    2.8437 C   0  0  0  0  0  0  0  0  0  0  0  0
    0.7180   -0.6986    3.8368 N   0  0  0  0  0  0  0  0  0  0  0  0
    1.4531    0.4555    3.3121 C   0  0  0  0  0  0  0  0  0  0  0  0
    0.5367    1.5622    2.7713 C   0  0  0  0  0  0  0  0  0  0  0  0
   -0.4797    1.9719    3.7361 N   0  0  0  0  0  0  0  0  0  0  0  0
   -1.2302    0.8125    4.1883 C   0  0  0  0  0  0  0  0  0  0  0  0
   -0.3196   -0.2759    4.7681 C   0  0  0  0  0  0  0  0  0  0  0  0
    0.0274    2.8431    4.7888 C   0  0  0  0  0  0  0  0  0  0  0  0
   -1.0682    3.4890    5.6230 C   0  0  0  0  0  0  0  0  0  0  0  0
    0.3527   -3.6680    0.0613 N   0  0  0  0  0  0  0  0  0  0  0  0
    1.6217    0.1468   -0.3631 C   0  0  0  0  0  0  0  0  0  0  0  0
    2.3755    1.2641   -0.0343 C   0  0  0  0  0  0  0  0  0  0  0  0
    3.0988    5.8258    0.9589 C   0  0  0  0  0  3  0  0  0  0  0  0
    4.0742    5.3368    1.9556 C   0  0  0  0  0  0  0  0  0  0  0  0
    3.3917    4.4049    3.4665 S   0  0  0  0  0  0  0  0  0  0  0  0
    2.8828    5.7567    4.5648 C   0  0  0  0  0  0  0  0  0  0  0  0
    1.8993    6.8184    4.0243 C   0  0  2  0  0  0  0  0  0  0  0  0
    2.3496    7.2971    3.1427 H   0  0  0  0  0  0  0  0  0  0  0  0
    1.6590    7.8150    5.0430 N   0  0  0  0  0  0  0  0  0  0  0  0
    2.5287    8.7989    5.3571 C   0  0  0  0  0  0  0  0  0  0  0  0
    2.0511    9.7670    6.4273 C   0  0  0  0  0  0  0  0  0  0  0  0
    3.6219    8.9252    4.8303 O   0  0  0  0  0  0  0  0  0  0  0  0
    0.5160    6.2528    3.6632 C   0  0  0  0  0  0  0  0  0  0  0  0
    0.4249    5.7030    2.4554 N   0  0  0  0  0  0  0  0  0  0  0  0
   -0.7765    5.0772    1.9549 C   0  0  0  0  0  0  0  0  0  0  0  0
   -0.4089    6.3346    4.4734 O   0  0  0  0  0  0  0  0  0  0  0  0
    3.4807    3.3827    0.6537 H   0  0  0  0  0  0  0  0  0  0  0  0
    0.3714    3.6910   -1.2900 H   0  0  0  0  0  0  0  0  0  0  0  0
   -0.9820    1.6826   -1.8793 H   0  0  0  0  0  0  0  0  0  0  0  0
   -1.3340   -0.6724   -1.9089 H   0  0  0  0  0  0  0  0  0  0  0  0
   -0.8045   -1.4047   -0.3841 H   0  0  0  0  0  0  0  0  0  0  0  0
    1.3121   -2.1935   -1.6252 H   0  0  0  0  0  0  0  0  0  0  0  0
    0.4876   -1.7191   -3.1342 H   0  0  0  0  0  0  0  0  0  0  0  0
   -3.1242   -9.4798   -8.3061 H   0  0  0  0  0  0  0  0  0  0  0  0
   -3.3544   -7.7855   -8.8398 H   0  0  0  0  0  0  0  0  0  0  0  0
   -4.5888   -8.5789   -7.8047 H   0  0  0  0  0  0  0  0  0  0  0  0
   -4.6344   -6.2660   -7.6268 H   0  0  0  0  0  0  0  0  0  0  0  0
   -6.1284   -2.2564   -6.7052 H   0  0  0  0  0  0  0  0  0  0  0  0
   -4.4366   -2.1435   -6.1236 H   0  0  0  0  0  0  0  0  0  0  0  0
   -5.7158   -2.8001   -5.0505 H   0  0  0  0  0  0  0  0  0  0  0  0
   -3.5864   -3.5368   -4.4816 H   0  0  0  0  0  0  0  0  0  0  0  0
   -2.1509   -6.7560   -2.1842 H   0  0  0  0  0  0  0  0  0  0  0  0
   -1.2678   -7.1196    0.2150 H   0  0  0  0  0  0  0  0  0  0  0  0
    0.8770   -4.6272    3.0490 H   0  0  0  0  0  0  0  0  0  0  0  0
    1.9930   -2.3162    1.6027 H   0  0  0  0  0  0  0  0  0  0  0  0
    2.1258   -2.6756    3.3387 H   0  0  0  0  0  0  0  0  0  0  0  0
   -0.5196   -2.2638    3.2776 H   0  0  0  0  0  0  0  0  0  0  0  0
   -0.1022   -1.2167    1.9128 H   0  0  0  0  0  0  0  0  0  0  0  0
    2.1400    0.1193    2.5221 H   0  0  0  0  0  0  0  0  0  0  0  0
    2.0830    0.8614    4.1226 H   0  0  0  0  0  0  0  0  0  0  0  0
    0.0295    1.2109    1.8551 H   0  0  0  0  0  0  0  0  0  0  0  0
    1.1365    2.4393    2.4833 H   0  0  0  0  0  0  0  0  0  0  0  0
   -1.7796    0.4013    3.3217 H   0  0  0  0  0  0  0  0  0  0  0  0
   -1.9891    1.1166    4.9253 H   0  0  0  0  0  0  0  0  0  0  0  0
   -0.9074   -1.1548    5.0808 H   0  0  0  0  0  0  0  0  0  0  0  0
    0.1735    0.1105    5.6781 H   0  0  0  0  0  0  0  0  0  0  0  0
    0.6058    3.6322    4.2867 H   0  0  0  0  0  0  0  0  0  0  0  0
    0.7480    2.3345    5.4680 H   0  0  0  0  0  0  0  0  0  0  0  0
   -1.8002    3.9874    4.9726 H   0  0  0  0  0  0  0  0  0  0  0  0
   -0.6337    4.2647    6.2685 H   0  0  0  0  0  0  0  0  0  0  0  0
   -1.5915    2.7634    6.2666 H   0  0  0  0  0  0  0  0  0  0  0  0
    1.9971   -0.8421   -0.0828 H   0  0  0  0  0  0  0  0  0  0  0  0
    3.3259    1.1383    0.4935 H   0  0  0  0  0  0  0  0  0  0  0  0
    2.9335    6.9022    0.8726 H   0  0  0  0  0  0  0  0  0  0  0  0
    4.6696    6.1603    2.3767 H   0  0  0  0  0  0  0  0  0  0  0  0
    4.8091    4.5974    1.5835 H   0  0  0  0  0  0  0  0  0  0  0  0
    3.7788    6.2992    4.9002 H   0  0  0  0  0  0  0  0  0  0  0  0
    2.4298    5.2718    5.4443 H   0  0  0  0  0  0  0  0  0  0  0  0
    0.7420    7.7297    5.4756 H   0  0  0  0  0  0  0  0  0  0  0  0
    2.8022    9.8002    7.2288 H   0  0  0  0  0  0  0  0  0  0  0  0
    1.0729    9.5056    6.8538 H   0  0  0  0  0  0  0  0  0  0  0  0
    1.9961   10.7732    5.9876 H   0  0  0  0  0  0  0  0  0  0  0  0
    1.2696    5.7136    1.8609 H   0  0  0  0  0  0  0  0  0  0  0  0
   -1.6522    5.7114    2.1616 H   0  0  0  0  0  0  0  0  0  0  0  0
   -0.6548    4.9534    0.8717 H   0  0  0  0  0  0  0  0  0  0  0  0
   -0.9485    4.0905    2.4181 H   0  0  0  0  0  0  0  0  0  0  0  0
  1  2  2  0  0  0  0
  2  3  1  0  0  0  0
  2 45  1  0  0  0  0
  3 59  1  0  0  0  0
  4 44  1  0  0  0  0
  4  3  1  0  0  0  0
  5  4  2  0  0  0  0
  6  5  1  0  0  0  0
  6  7  2  0  0  0  0
  7 43  1  0  0  0  0
  8  7  1  0  0  0  0
  8 63  1  0  0  0  0
  9 64  1  0  0  0  0
  9  8  1  0  0  0  0
 10  9  1  0  0  0  0
 10 26  1  0  0  0  0
 11 10  1  0  0  0  0
 12 11  2  0  0  0  0
 13 11  1  0  0  0  0
 13 25  2  0  0  0  0
 14 13  1  0  0  0  0
 15 16  1  0  0  0  0
 15 14  2  0  0  0  0
 17 15  1  0  0  0  0
 18 17  1  0  0  0  0
 19 68  1  0  0  0  0
 19 18  1  0  0  0  0
 20 17  2  0  0  0  0
 20 21  1  0  0  0  0
 21 24  2  0  0  0  0
 22 21  1  0  0  0  0
 22 23  1  0  0  0  0
 23 72  1  0  0  0  0
 24 14  1  0  0  0  0
 24 73  1  0  0  0  0
 25 74  1  0  0  0  0
 25 27  1  0  0  0  0
 26 42  2  0  0  0  0
 27 26  1  0  0  0  0
 27 28  2  0  0  0  0
 28 75  1  0  0  0  0
 28 29  1  0  0  0  0
 30 29  2  0  0  0  0
 30 31  1  0  0  0  0
 31 32  1  0  0  0  0
 31 76  1  0  0  0  0
 32 33  1  0  0  0  0
 32 78  1  0  0  0  0
 33 79  1  0  0  0  0
 33 34  1  0  0  0  0
 34 39  1  0  0  0  0
 35 34  1  0  0  0  0
 35 82  1  0  0  0  0
 36 35  1  0  0  0  0
 36 37  1  0  0  0  0
 37 38  1  0  0  0  0
 37 40  1  0  0  0  0
 38 39  1  0  0  0  0
 38 86  1  0  0  0  0
 39 87  1  0  0  0  0
 39 88  1  0  0  0  0
 40 90  1  0  0  0  0
 40 41  1  0  0  0  0
 41 93  1  0  0  0  0
 41 92  1  0  0  0  0
 42 30  1  0  0  0  0
 43 94  1  0  0  0  0
 43 44  2  0  0  0  0
 44 95  1  0  0  0  0
 45 46  1  0  0  0  0
 46 97  1  0  0  0  0
 46 47  1  0  0  0  0
 47 48  1  0  0  0  0
 48 99  1  0  0  0  0
 48100  1  0  0  0  0
 49 50  1  6  0  0  0
 49 48  1  0  0  0  0
 49 51  1  0  0  0  0
 51 52  1  0  0  0  0
 51101  1  0  0  0  0
 52 53  1  0  0  0  0
 53103  1  0  0  0  0
 53102  1  0  0  0  0
 54 52  2  0  0  0  0
 55 49  1  0  0  0  0
 55 58  2  0  0  0  0
 56 55  1  0  0  0  0
 57106  1  0  0  0  0
 57108  1  0  0  0  0
 57 56  1  0  0  0  0
 60  5  1  0  0  0  0
 61  6  1  0  0  0  0
 62  8  1  0  0  0  0
 65  9  1  0  0  0  0
 66 19  1  0  0  0  0
 67 19  1  0  0  0  0
 69 20  1  0  0  0  0
 70 23  1  0  0  0  0
 71 23  1  0  0  0  0
 77 32  1  0  0  0  0
 80 33  1  0  0  0  0
 81 35  1  0  0  0  0
 83 36  1  0  0  0  0
 84 36  1  0  0  0  0
 85 38  1  0  0  0  0
 89 40  1  0  0  0  0
 91 41  1  0  0  0  0
 96 45  1  0  0  0  0
 98 46  1  0  0  0  0
104 53  1  0  0  0  0
105 56  1  0  0  0  0
107 57  1  0  0  0  0
M  END
