94
-1 1
O         4.102443   17.703695    1.308450
C         4.446672   17.413489    0.160915
N         4.888283   16.065704   -0.051033
C         4.978484   15.354377   -1.329342
C         4.833833   13.869353   -0.960164
C         5.219557   13.858894    0.495251
C         5.149842   15.181558    0.978457
C         5.346949   15.432686    2.341931
C         5.612266   14.346195    3.171562
N         5.705218   14.590496    4.590843
C         7.043482   14.731481    5.053821
O         7.976458   14.546440    4.303584
C         7.193081   15.116875    6.450439
C         6.117634   15.302029    7.239309
C         4.589159   14.737055    5.395430
C         4.789536   15.107797    6.735388
C         3.675095   15.288706    7.597642
N         2.435724   15.125864    7.256670
C         2.193035   14.739307    5.968542
C         3.206769   14.519026    4.983436
C         2.769989   14.087858    3.702518
C         1.438878   13.888251    3.388761
C         1.064705   13.433649    2.024339
C        -0.096130   13.906230    1.399437
C        -0.441080   13.491249    0.115837
C         0.385214   12.594857   -0.552458
S        -0.052146   12.042352   -2.191144
O        -1.283180   12.739312   -2.560010
N         1.238901   12.494916   -3.117515
C         1.455908   13.834357   -3.724214
C         2.910855   13.825029   -4.201126
C         0.521426   14.064233   -4.918039
C         1.260794   14.927140   -2.673333
O        -0.017601   10.578695   -2.213688
C         1.545167   12.104686    0.046270
C         1.877591   12.524182    1.326860
C         0.455067   14.127836    4.377065
C         0.831398   14.540706    5.628511
C         5.745914   13.043873    2.696868
C         5.535166   12.803746    1.335417
C         4.443309   18.350055   -0.916457
C         4.994953   18.269239   -2.210296
S         3.622366   17.635300   -3.788899
C         4.798909   17.482281   -5.165132
C         4.160613   17.737093   -6.541962
H         4.954730   17.795470   -7.305733
N         3.458175   18.986021   -6.542852
C         3.085137   19.575167   -7.708766
C         2.095117   20.712344   -7.559881
O         3.506141   19.211467   -8.793131
C         3.221196   16.584375   -6.947108
N         3.873347   15.450632   -7.331623
C         3.184962   14.264904   -7.771749
O         2.010886   16.670167   -6.901394
H         5.967912   15.521880   -1.793710
H         4.216996   15.710459   -2.036076
H         5.457571   13.218639   -1.589935
H         3.787789   13.528715   -1.065299
H         5.226303   16.439497    2.733597
H         8.217890   15.250214    6.797154
H         6.235115   15.599931    8.285164
H         3.877231   15.591334    8.634265
H         3.489031   13.920937    2.914048
H        -0.727190   14.637140    1.908861
H        -1.335784   13.870470   -0.379850
H         1.504221   11.704893   -3.701003
H         3.068451   13.040139   -4.959416
H         3.594849   13.640261   -3.362414
H         3.162180   14.798747   -4.644260
H         0.638286   13.254368   -5.657431
H         0.766904   15.017016   -5.412001
H        -0.528275   14.082218   -4.594503
H         1.890042   14.750937   -1.788332
H         0.211554   14.995303   -2.352997
H         1.556158   15.892229   -3.106314
H         2.181795   11.398227   -0.489337
H         2.782783   12.136967    1.797685
H        -0.600319   13.961445    4.150195
H         0.101224   14.720953    6.418564
H         5.974932   12.232997    3.389176
H         5.599764   11.786236    0.940893
H         3.944601   19.280274   -0.634160
H         5.767570   17.522723   -2.412037
H         5.226397   19.227810   -2.685273
H         5.266817   16.483646   -5.170389
H         5.606507   18.220912   -5.020725
H         2.970028   19.191546   -5.672414
H         1.079507   20.287953   -7.546906
H         2.184230   21.380887   -8.424557
H         2.243078   21.276452   -6.628253
H         4.878587   15.491235   -7.426240
H         2.138392   14.344237   -7.452612
H         3.626247   13.364059   -7.319294
H         3.205148   14.156466   -8.869510
