94
-1 1
O         0.509603    2.219857    1.650393
C         1.003758    2.064421    0.525082
N         1.700767    0.793943    0.318134
C         1.741125    0.032625   -0.929968
C         1.658576   -1.446691   -0.508456
C         2.062104   -1.392089    0.942770
C         1.992671   -0.048573    1.364303
C         2.210353    0.267846    2.712099
C         2.470276   -0.777859    3.591318
N         2.571182   -0.469008    4.997906
C         3.912283   -0.329224    5.451815
O         4.841662   -0.548560    4.705879
C         4.072065    0.095660    6.835697
C         3.001809    0.317490    7.622221
C         1.459569   -0.276718    5.798582
C         1.669987    0.129155    7.127352
C         0.562062    0.351009    7.988208
N        -0.680838    0.199681    7.655990
C        -0.934587   -0.212583    6.377515
C         0.071360   -0.476087    5.394532
C        -0.379029   -0.922715    4.123560
C        -1.715556   -1.097224    3.818839
C        -2.107588   -1.567135    2.465196
C        -3.251634   -1.064696    1.832789
C        -3.618809   -1.497375    0.561626
C        -2.832409   -2.443779   -0.085918
S        -3.294009   -3.013090   -1.710836
O        -4.497109   -2.277136   -2.096921
N        -1.988434   -2.628972   -2.649991
C        -1.719186   -1.310456   -3.277824
C        -0.262122   -1.382684   -3.744155
C        -2.636572   -1.067306   -4.482471
C        -1.883796   -0.193099   -2.246922
O        -3.315091   -4.477249   -1.708196
C        -1.689905   -2.964476    0.520912
C        -1.333271   -2.524179    1.788135
C        -2.690559   -0.817561    4.804703
C        -2.301193   -0.389002    6.046751
C         2.588458   -2.104620    3.180293
C         2.374736   -2.408103    1.831819
C         0.964078    2.987703   -0.529208
C         1.706334    2.982898   -1.787972
S         0.617941    2.462569   -3.281647
C         1.784580    2.587263   -4.674768
C         1.055317    2.800396   -6.007788
H         1.797527    2.937884   -6.811548
N         0.248679    3.985582   -5.955310
C        -0.207331    4.560854   -7.102056
C        -1.290122    5.600911   -6.906164
O         0.218819    4.253979   -8.200689
C         0.191852    1.575279   -6.376074
N         0.905415    0.498953   -6.804772
C         0.288032   -0.737109   -7.215183
O        -1.017169    1.572329   -6.260814
H         2.690251    0.211656   -1.469892
H         0.928985    0.343332   -1.598832
H         2.303242   -2.092604   -1.122666
H         0.626582   -1.833042   -0.592962
H         2.087000    1.290316    3.060983
H         5.099840    0.224535    7.175343
H         3.126530    0.642823    8.659117
H         0.773386    0.676604    9.016145
H         0.331446   -1.115105    3.333380
H        -3.848641   -0.295031    2.325659
H        -4.498811   -1.093353    0.059408
H        -1.756024   -3.439233   -3.219369
H        -0.133521   -2.174792   -4.500532
H         0.405987   -1.598159   -2.900431
H         0.037759   -0.422438   -4.187412
H        -2.539443   -1.889568   -5.211178
H        -2.357703   -0.128044   -4.984390
H        -3.687543   -1.013258   -4.166826
H        -1.278658   -0.378084   -1.347567
H        -2.934171   -0.076917   -1.945236
H        -1.548314    0.754779   -2.687477
H        -1.085121   -3.710126    0.001776
H        -0.439349   -2.931070    2.264281
H        -3.750102   -0.963889    4.583099
H        -3.024225   -0.176247    6.835289
H         2.812810   -2.882753    3.910691
H         2.430219   -3.444624    1.487973
H         0.354821    3.867724   -0.309705
H         2.565407    2.298515   -1.805996
H         2.058147    3.984021   -2.085182
H         2.410572    1.682851   -4.736697
H         2.451493    3.446811   -4.498250
H        -0.249352    4.126991   -5.079802
H        -2.261030    5.085260   -6.849289
H        -1.300553    6.274617   -7.771089
H        -1.152874    6.176411   -5.979861
H         1.898695    0.615344   -6.950422
H        -0.744371   -0.740322   -6.844386
H         0.819874   -1.599912   -6.787617
H         0.263594   -0.841504   -8.312920
