-1 1
 OpenBabel05192410563D

 94 99  0  0  1  0  0  0  0  0999 V2000
    0.5096    2.2199    1.6504 O   0  0  0  0  0  0  0  0  0  0  0  0
    1.0038    2.0644    0.5251 C   0  0  0  0  0  0  0  0  0  0  0  0
    1.7008    0.7939    0.3181 N   0  0  0  0  0  0  0  0  0  0  0  0
    1.7411    0.0326   -0.9300 C   0  0  0  0  0  0  0  0  0  0  0  0
    1.6586   -1.4467   -0.5085 C   0  0  0  0  0  0  0  0  0  0  0  0
    2.0621   -1.3921    0.9428 C   0  0  0  0  0  0  0  0  0  0  0  0
    1.9927   -0.0486    1.3643 C   0  0  0  0  0  0  0  0  0  0  0  0
    2.2104    0.2678    2.7121 C   0  0  0  0  0  0  0  0  0  0  0  0
    2.4703   -0.7779    3.5913 C   0  0  0  0  0  0  0  0  0  0  0  0
    2.5712   -0.4690    4.9979 N   0  0  0  0  0  0  0  0  0  0  0  0
    3.9123   -0.3292    5.4518 C   0  0  0  0  0  0  0  0  0  0  0  0
    4.8417   -0.5486    4.7059 O   0  0  0  0  0  0  0  0  0  0  0  0
    4.0721    0.0957    6.8357 C   0  0  0  0  0  0  0  0  0  0  0  0
    3.0018    0.3175    7.6222 C   0  0  0  0  0  0  0  0  0  0  0  0
    1.4596   -0.2767    5.7986 C   0  0  0  0  0  0  0  0  0  0  0  0
    1.6700    0.1292    7.1274 C   0  0  0  0  0  0  0  0  0  0  0  0
    0.5621    0.3510    7.9882 C   0  0  0  0  0  0  0  0  0  0  0  0
   -0.6808    0.1997    7.6560 N   0  0  0  0  0  0  0  0  0  0  0  0
   -0.9346   -0.2126    6.3775 C   0  0  0  0  0  0  0  0  0  0  0  0
    0.0714   -0.4761    5.3945 C   0  0  0  0  0  0  0  0  0  0  0  0
   -0.3790   -0.9227    4.1236 C   0  0  0  0  0  0  0  0  0  0  0  0
   -1.7156   -1.0972    3.8188 C   0  0  0  0  0  0  0  0  0  0  0  0
   -2.1076   -1.5671    2.4652 C   0  0  0  0  0  0  0  0  0  0  0  0
   -3.2516   -1.0647    1.8328 C   0  0  0  0  0  0  0  0  0  0  0  0
   -3.6188   -1.4974    0.5616 C   0  0  0  0  0  0  0  0  0  0  0  0
   -2.8324   -2.4438   -0.0859 C   0  0  0  0  0  0  0  0  0  0  0  0
   -3.2940   -3.0131   -1.7108 S   0  0  0  0  0  0  0  0  0  0  0  0
   -4.4971   -2.2771   -2.0969 O   0  0  0  0  0  0  0  0  0  0  0  0
   -1.9884   -2.6290   -2.6500 N   0  0  0  0  0  0  0  0  0  0  0  0
   -1.7192   -1.3105   -3.2778 C   0  0  0  0  0  0  0  0  0  0  0  0
   -0.2621   -1.3827   -3.7442 C   0  0  0  0  0  0  0  0  0  0  0  0
   -2.6366   -1.0673   -4.4825 C   0  0  0  0  0  0  0  0  0  0  0  0
   -1.8838   -0.1931   -2.2469 C   0  0  0  0  0  0  0  0  0  0  0  0
   -3.3151   -4.4772   -1.7082 O   0  0  0  0  0  0  0  0  0  0  0  0
   -1.6899   -2.9645    0.5209 C   0  0  0  0  0  0  0  0  0  0  0  0
   -1.3333   -2.5242    1.7881 C   0  0  0  0  0  0  0  0  0  0  0  0
   -2.6906   -0.8176    4.8047 C   0  0  0  0  0  0  0  0  0  0  0  0
   -2.3012   -0.3890    6.0468 C   0  0  0  0  0  0  0  0  0  0  0  0
    2.5885   -2.1046    3.1803 C   0  0  0  0  0  0  0  0  0  0  0  0
    2.3747   -2.4081    1.8318 C   0  0  0  0  0  0  0  0  0  0  0  0
    0.9641    2.9877   -0.5292 C   0  0  0  0  0  3  0  0  0  0  0  0
    1.7063    2.9829   -1.7880 C   0  0  0  0  0  0  0  0  0  0  0  0
    0.6179    2.4626   -3.2816 S   0  0  0  0  0  0  0  0  0  0  0  0
    1.7846    2.5873   -4.6748 C   0  0  0  0  0  0  0  0  0  0  0  0
    1.0553    2.8004   -6.0078 C   0  0  2  0  0  0  0  0  0  0  0  0
    1.7975    2.9379   -6.8115 H   0  0  0  0  0  0  0  0  0  0  0  0
    0.2487    3.9856   -5.9553 N   0  0  0  0  0  0  0  0  0  0  0  0
   -0.2073    4.5609   -7.1021 C   0  0  0  0  0  0  0  0  0  0  0  0
   -1.2901    5.6009   -6.9062 C   0  0  0  0  0  0  0  0  0  0  0  0
    0.2188    4.2540   -8.2007 O   0  0  0  0  0  0  0  0  0  0  0  0
    0.1919    1.5753   -6.3761 C   0  0  0  0  0  0  0  0  0  0  0  0
    0.9054    0.4990   -6.8048 N   0  0  0  0  0  0  0  0  0  0  0  0
    0.2880   -0.7371   -7.2152 C   0  0  0  0  0  0  0  0  0  0  0  0
   -1.0172    1.5723   -6.2608 O   0  0  0  0  0  0  0  0  0  0  0  0
    2.6903    0.2117   -1.4699 H   0  0  0  0  0  0  0  0  0  0  0  0
    0.9290    0.3433   -1.5988 H   0  0  0  0  0  0  0  0  0  0  0  0
    2.3032   -2.0926   -1.1227 H   0  0  0  0  0  0  0  0  0  0  0  0
    0.6266   -1.8330   -0.5930 H   0  0  0  0  0  0  0  0  0  0  0  0
    2.0870    1.2903    3.0610 H   0  0  0  0  0  0  0  0  0  0  0  0
    5.0998    0.2245    7.1753 H   0  0  0  0  0  0  0  0  0  0  0  0
    3.1265    0.6428    8.6591 H   0  0  0  0  0  0  0  0  0  0  0  0
    0.7734    0.6766    9.0161 H   0  0  0  0  0  0  0  0  0  0  0  0
    0.3314   -1.1151    3.3334 H   0  0  0  0  0  0  0  0  0  0  0  0
   -3.8486   -0.2950    2.3257 H   0  0  0  0  0  0  0  0  0  0  0  0
   -4.4988   -1.0934    0.0594 H   0  0  0  0  0  0  0  0  0  0  0  0
   -1.7560   -3.4392   -3.2194 H   0  0  0  0  0  0  0  0  0  0  0  0
   -0.1335   -2.1748   -4.5005 H   0  0  0  0  0  0  0  0  0  0  0  0
    0.4060   -1.5982   -2.9004 H   0  0  0  0  0  0  0  0  0  0  0  0
    0.0378   -0.4224   -4.1874 H   0  0  0  0  0  0  0  0  0  0  0  0
   -2.5394   -1.8896   -5.2112 H   0  0  0  0  0  0  0  0  0  0  0  0
   -2.3577   -0.1280   -4.9844 H   0  0  0  0  0  0  0  0  0  0  0  0
   -3.6875   -1.0133   -4.1668 H   0  0  0  0  0  0  0  0  0  0  0  0
   -1.2787   -0.3781   -1.3476 H   0  0  0  0  0  0  0  0  0  0  0  0
   -2.9342   -0.0769   -1.9452 H   0  0  0  0  0  0  0  0  0  0  0  0
   -1.5483    0.7548   -2.6875 H   0  0  0  0  0  0  0  0  0  0  0  0
   -1.0851   -3.7101    0.0018 H   0  0  0  0  0  0  0  0  0  0  0  0
   -0.4393   -2.9311    2.2643 H   0  0  0  0  0  0  0  0  0  0  0  0
   -3.7501   -0.9639    4.5831 H   0  0  0  0  0  0  0  0  0  0  0  0
   -3.0242   -0.1762    6.8353 H   0  0  0  0  0  0  0  0  0  0  0  0
    2.8128   -2.8828    3.9107 H   0  0  0  0  0  0  0  0  0  0  0  0
    2.4302   -3.4446    1.4880 H   0  0  0  0  0  0  0  0  0  0  0  0
    0.3548    3.8677   -0.3097 H   0  0  0  0  0  0  0  0  0  0  0  0
    2.5654    2.2985   -1.8060 H   0  0  0  0  0  0  0  0  0  0  0  0
    2.0581    3.9840   -2.0852 H   0  0  0  0  0  0  0  0  0  0  0  0
    2.4106    1.6829   -4.7367 H   0  0  0  0  0  0  0  0  0  0  0  0
    2.4515    3.4468   -4.4982 H   0  0  0  0  0  0  0  0  0  0  0  0
   -0.2494    4.1270   -5.0798 H   0  0  0  0  0  0  0  0  0  0  0  0
   -2.2610    5.0853   -6.8493 H   0  0  0  0  0  0  0  0  0  0  0  0
   -1.3006    6.2746   -7.7711 H   0  0  0  0  0  0  0  0  0  0  0  0
   -1.1529    6.1764   -5.9799 H   0  0  0  0  0  0  0  0  0  0  0  0
    1.8987    0.6153   -6.9504 H   0  0  0  0  0  0  0  0  0  0  0  0
   -0.7444   -0.7403   -6.8444 H   0  0  0  0  0  0  0  0  0  0  0  0
    0.8199   -1.5999   -6.7876 H   0  0  0  0  0  0  0  0  0  0  0  0
    0.2636   -0.8415   -8.3129 H   0  0  0  0  0  0  0  0  0  0  0  0
  2  1  2  0  0  0  0
  3  2  1  0  0  0  0
  3  7  1  0  0  0  0
  4  5  1  0  0  0  0
  4  3  1  0  0  0  0
  5  6  1  0  0  0  0
  6  7  2  0  0  0  0
  6 40  1  0  0  0  0
  7  8  1  0  0  0  0
  8 59  1  0  0  0  0
  8  9  2  0  0  0  0
  9 10  1  0  0  0  0
 10 11  1  0  0  0  0
 10 15  1  0  0  0  0
 11 13  1  0  0  0  0
 12 11  2  0  0  0  0
 13 60  1  0  0  0  0
 13 14  2  0  0  0  0
 14 61  1  0  0  0  0
 15 16  1  0  0  0  0
 16 14  1  0  0  0  0
 16 17  2  0  0  0  0
 17 62  1  0  0  0  0
 18 17  1  0  0  0  0
 19 18  2  0  0  0  0
 20 15  2  0  0  0  0
 20 19  1  0  0  0  0
 21 20  1  0  0  0  0
 22 21  2  0  0  0  0
 22 37  1  0  0  0  0
 23 22  1  0  0  0  0
 24 64  1  0  0  0  0
 24 23  1  0  0  0  0
 25 24  2  0  0  0  0
 26 35  2  0  0  0  0
 26 25  1  0  0  0  0
 27 34  2  0  0  0  0
 27 26  1  0  0  0  0
 28 27  2  0  0  0  0
 29 27  1  0  0  0  0
 30 29  1  0  0  0  0
 30 33  1  0  0  0  0
 31 30  1  0  0  0  0
 31 68  1  0  0  0  0
 32 72  1  0  0  0  0
 32 30  1  0  0  0  0
 33 74  1  0  0  0  0
 33 73  1  0  0  0  0
 35 36  1  0  0  0  0
 36 77  1  0  0  0  0
 36 23  2  0  0  0  0
 37 38  2  0  0  0  0
 38 19  1  0  0  0  0
 38 79  1  0  0  0  0
 39  9  1  0  0  0  0
 39 80  1  0  0  0  0
 40 39  2  0  0  0  0
 41 82  1  0  0  0  0
 41  2  1  0  0  0  0
 42 41  1  0  0  0  0
 43 42  1  0  0  0  0
 44 86  1  0  0  0  0
 44 43  1  0  0  0  0
 45 46  1  6  0  0  0
 45 47  1  0  0  0  0
 45 44  1  0  0  0  0
 47 87  1  0  0  0  0
 48 49  1  0  0  0  0
 48 47  1  0  0  0  0
 49 88  1  0  0  0  0
 49 90  1  0  0  0  0
 50 48  2  0  0  0  0
 51 54  2  0  0  0  0
 51 45  1  0  0  0  0
 52 51  1  0  0  0  0
 53 92  1  0  0  0  0
 53 52  1  0  0  0  0
 53 93  1  0  0  0  0
 55  4  1  0  0  0  0
 56  4  1  0  0  0  0
 57  5  1  0  0  0  0
 58  5  1  0  0  0  0
 63 21  1  0  0  0  0
 65 25  1  0  0  0  0
 66 29  1  0  0  0  0
 67 31  1  0  0  0  0
 69 31  1  0  0  0  0
 70 32  1  0  0  0  0
 71 32  1  0  0  0  0
 75 33  1  0  0  0  0
 76 35  1  0  0  0  0
 78 37  1  0  0  0  0
 81 40  1  0  0  0  0
 83 42  1  0  0  0  0
 84 42  1  0  0  0  0
 85 44  1  0  0  0  0
 89 49  1  0  0  0  0
 91 52  1  0  0  0  0
 94 53  1  0  0  0  0
M  END
