-1 1
 OpenBabel05232413493D

 94 98  0  0  1  0  0  0  0  0999 V2000
    1.9969    3.0047    1.6679 O   0  0  0  0  0  0  0  0  0  0  0  0
    1.8020    2.5656    0.5467 C   0  0  0  0  0  0  0  0  0  0  0  0
    1.8309    1.2150    0.2770 N   0  0  0  0  0  0  0  0  0  0  0  0
    1.3156    0.5707   -0.9501 C   0  0  0  0  0  0  0  0  0  0  0  0
    1.6329   -0.9223   -0.7765 C   0  0  0  0  0  0  0  0  0  0  0  0
    1.9628   -1.0450    0.6843 C   0  0  0  0  0  0  0  0  0  0  0  0
    2.0715    0.2340    1.2503 C   0  0  0  0  0  0  0  0  0  0  0  0
    2.3349    0.3889    2.6107 C   0  0  0  0  0  0  0  0  0  0  0  0
    2.4420   -0.7664    3.3845 C   0  0  0  0  0  0  0  0  0  0  0  0
    2.4878   -0.5985    4.8136 N   0  0  0  0  0  0  0  0  0  0  0  0
    3.7589   -0.8436    5.4023 C   0  0  0  0  0  0  0  0  0  0  0  0
    4.6516   -1.3408    4.7522 O   0  0  0  0  0  0  0  0  0  0  0  0
    3.8980   -0.4275    6.7925 C   0  0  0  0  0  0  0  0  0  0  0  0
    2.8749    0.1447    7.4566 C   0  0  0  0  0  0  0  0  0  0  0  0
    1.3980   -0.1002    5.5101 C   0  0  0  0  0  0  0  0  0  0  0  0
    1.5937    0.3172    6.8339 C   0  0  0  0  0  0  0  0  0  0  0  0
    0.5223    0.9206    7.5479 C   0  0  0  0  0  0  0  0  0  0  0  0
   -0.6690    1.1171    7.0753 N   0  0  0  0  0  0  0  0  0  0  0  0
   -0.9214    0.6586    5.8132 C   0  0  0  0  0  0  0  0  0  0  0  0
    0.0447    0.0105    4.9846 C   0  0  0  0  0  0  0  0  0  0  0  0
   -0.4129   -0.5048    3.7432 C   0  0  0  0  0  0  0  0  0  0  0  0
   -1.7120   -0.3534    3.2974 C   0  0  0  0  0  0  0  0  0  0  0  0
   -2.1147   -0.9270    1.9850 C   0  0  0  0  0  0  0  0  0  0  0  0
   -3.0736   -0.2984    1.1797 C   0  0  0  0  0  0  0  0  0  0  0  0
   -3.4653   -0.8492   -0.0393 C   0  0  0  0  0  0  0  0  0  0  0  0
   -2.8830   -2.0369   -0.4674 C   0  0  0  0  0  0  0  0  0  0  0  0
   -3.4039   -2.8014   -1.9980 S   0  0  0  0  0  0  0  0  0  0  0  0
   -4.5279   -2.0169   -2.5023 O   0  0  0  0  0  0  0  0  0  0  0  0
   -2.0799   -2.6987   -2.9711 N   0  0  0  0  0  0  0  0  0  0  0  0
   -1.7119   -1.5760   -3.8728 C   0  0  0  0  0  0  0  0  0  0  0  0
   -0.2193   -1.7617   -4.1533 C   0  0  0  0  0  0  0  0  0  0  0  0
   -2.5162   -1.6297   -5.1759 C   0  0  0  0  0  0  0  0  0  0  0  0
   -1.9389   -0.2350   -3.1783 C   0  0  0  0  0  0  0  0  0  0  0  0
   -3.5645   -4.2332   -1.7422 O   0  0  0  0  0  0  0  0  0  0  0  0
   -1.9145   -2.6761    0.3062 C   0  0  0  0  0  0  0  0  0  0  0  0
   -1.5395   -2.1230    1.5222 C   0  0  0  0  0  0  0  0  0  0  0  0
   -2.6362    0.3456    4.1124 C   0  0  0  0  0  0  0  0  0  0  0  0
   -2.2461    0.8261    5.3357 C   0  0  0  0  0  0  0  0  0  0  0  0
    2.4058   -2.0420    2.8298 C   0  0  0  0  0  0  0  0  0  0  0  0
    2.1645   -2.1771    1.4606 C   0  0  0  0  0  0  0  0  0  0  0  0
    1.5136    3.5319   -0.5566 C   0  0  0  0  0  0  0  0  0  0  0  0
    2.0362    3.5534   -1.7842 C   0  0  0  0  0  0  0  0  0  0  0  0
    2.8536    0.9297   -4.2464 S   0  0  0  0  0  1  0  0  0  0  0  0
    2.2444    2.3861   -5.1827 C   0  0  0  0  0  0  0  0  0  0  0  0
    0.7242    2.4161   -5.3838 C   0  0  2  0  0  0  0  0  0  0  0  0
    0.4328    3.3510   -5.8906 H   0  0  0  0  0  0  0  0  0  0  0  0
    0.0354    2.4338   -4.1161 N   0  0  0  0  0  0  0  0  0  0  0  0
   -0.8316    3.4092   -3.7431 C   0  0  0  0  0  0  0  0  0  0  0  0
   -1.5050    3.1886   -2.4008 C   0  0  0  0  0  0  0  0  0  0  0  0
   -1.0934    4.3797   -4.4310 O   0  0  0  0  0  0  0  0  0  0  0  0
    0.1266    1.3008   -6.2664 C   0  0  0  0  0  0  0  0  0  0  0  0
    1.0077    0.4124   -6.7854 N   0  0  0  0  0  0  0  0  0  0  0  0
    0.5562   -0.6622   -7.6295 C   0  0  0  0  0  0  0  0  0  0  0  0
   -1.0735    1.2656   -6.4990 O   0  0  0  0  0  0  0  0  0  0  0  0
    1.7862    0.9545   -1.8663 H   0  0  0  0  0  0  0  0  0  0  0  0
    0.2265    0.7392   -1.0053 H   0  0  0  0  0  0  0  0  0  0  0  0
    2.4876   -1.2119   -1.4090 H   0  0  0  0  0  0  0  0  0  0  0  0
    0.7804   -1.5568   -1.0607 H   0  0  0  0  0  0  0  0  0  0  0  0
    2.3699    1.3783    3.0583 H   0  0  0  0  0  0  0  0  0  0  0  0
    4.8815   -0.5844    7.2355 H   0  0  0  0  0  0  0  0  0  0  0  0
    2.9977    0.4801    8.4903 H   0  0  0  0  0  0  0  0  0  0  0  0
    0.7203    1.2609    8.5734 H   0  0  0  0  0  0  0  0  0  0  0  0
    0.2689   -1.0438    3.1004 H   0  0  0  0  0  0  0  0  0  0  0  0
   -3.5165    0.6472    1.4989 H   0  0  0  0  0  0  0  0  0  0  0  0
   -4.2188   -0.3634   -0.6609 H   0  0  0  0  0  0  0  0  0  0  0  0
   -1.8424   -3.6283   -3.3076 H   0  0  0  0  0  0  0  0  0  0  0  0
   -0.0299   -2.7133   -4.6770 H   0  0  0  0  0  0  0  0  0  0  0  0
    0.3602   -1.7598   -3.2208 H   0  0  0  0  0  0  0  0  0  0  0  0
    0.1685   -0.9453   -4.7755 H   0  0  0  0  0  0  0  0  0  0  0  0
   -2.3488   -2.5880   -5.6946 H   0  0  0  0  0  0  0  0  0  0  0  0
   -2.2008   -0.8088   -5.8386 H   0  0  0  0  0  0  0  0  0  0  0  0
   -3.5915   -1.5297   -4.9692 H   0  0  0  0  0  0  0  0  0  0  0  0
   -1.3566   -0.1663   -2.2469 H   0  0  0  0  0  0  0  0  0  0  0  0
   -3.0004   -0.0701   -2.9490 H   0  0  0  0  0  0  0  0  0  0  0  0
   -1.6173    0.5636   -3.8591 H   0  0  0  0  0  0  0  0  0  0  0  0
   -1.4742   -3.6144   -0.0357 H   0  0  0  0  0  0  0  0  0  0  0  0
   -0.8003   -2.6423    2.1343 H   0  0  0  0  0  0  0  0  0  0  0  0
   -3.6705    0.4690    3.7847 H   0  0  0  0  0  0  0  0  0  0  0  0
   -2.9441    1.3367    6.0004 H   0  0  0  0  0  0  0  0  0  0  0  0
    2.5213   -2.9155    3.4719 H   0  0  0  0  0  0  0  0  0  0  0  0
    2.1052   -3.1696    1.0082 H   0  0  0  0  0  0  0  0  0  0  0  0
    0.9119    4.3749   -0.2023 H   0  0  0  0  0  0  0  0  0  0  0  0
    2.6771    2.7649   -2.1986 H   0  0  0  0  0  0  0  0  0  0  0  0
    1.8158    4.3951   -2.4463 H   0  0  0  0  0  0  0  0  0  0  0  0
    2.7267    2.4364   -6.1726 H   0  0  0  0  0  0  0  0  0  0  0  0
    2.5176    3.3178   -4.6616 H   0  0  0  0  0  0  0  0  0  0  0  0
    0.3488    1.7316   -3.4528 H   0  0  0  0  0  0  0  0  0  0  0  0
   -2.5258    2.8217   -2.5868 H   0  0  0  0  0  0  0  0  0  0  0  0
   -1.5792    4.1507   -1.8775 H   0  0  0  0  0  0  0  0  0  0  0  0
   -0.9802    2.4644   -1.7648 H   0  0  0  0  0  0  0  0  0  0  0  0
    1.8794    0.2944   -6.2500 H   0  0  0  0  0  0  0  0  0  0  0  0
   -0.2124   -0.2885   -8.3199 H   0  0  0  0  0  0  0  0  0  0  0  0
    0.1082   -1.4939   -7.0567 H   0  0  0  0  0  0  0  0  0  0  0  0
    1.4029   -1.0560   -8.2091 H   0  0  0  0  0  0  0  0  0  0  0  0
  2  1  2  0  0  0  0
  3  2  1  0  0  0  0
  3  7  1  0  0  0  0
  4  5  1  0  0  0  0
  4  3  1  0  0  0  0
  5  6  1  0  0  0  0
  6  7  2  0  0  0  0
  6 40  1  0  0  0  0
  7  8  1  0  0  0  0
  8 59  1  0  0  0  0
  8  9  2  0  0  0  0
  9 10  1  0  0  0  0
 10 11  1  0  0  0  0
 10 15  1  0  0  0  0
 11 13  1  0  0  0  0
 12 11  2  0  0  0  0
 13 60  1  0  0  0  0
 13 14  2  0  0  0  0
 14 61  1  0  0  0  0
 15 16  1  0  0  0  0
 16 14  1  0  0  0  0
 16 17  2  0  0  0  0
 17 62  1  0  0  0  0
 18 17  1  0  0  0  0
 19 18  2  0  0  0  0
 20 15  2  0  0  0  0
 20 19  1  0  0  0  0
 21 20  1  0  0  0  0
 22 21  2  0  0  0  0
 22 37  1  0  0  0  0
 23 22  1  0  0  0  0
 24 64  1  0  0  0  0
 24 23  2  0  0  0  0
 25 24  1  0  0  0  0
 26 25  2  0  0  0  0
 26 35  1  0  0  0  0
 27 34  2  0  0  0  0
 27 26  1  0  0  0  0
 28 27  2  0  0  0  0
 29 27  1  0  0  0  0
 30 33  1  0  0  0  0
 30 29  1  0  0  0  0
 31 30  1  0  0  0  0
 31 68  1  0  0  0  0
 32 72  1  0  0  0  0
 32 30  1  0  0  0  0
 33 74  1  0  0  0  0
 33 73  1  0  0  0  0
 35 36  2  0  0  0  0
 36 23  1  0  0  0  0
 36 77  1  0  0  0  0
 37 38  2  0  0  0  0
 38 19  1  0  0  0  0
 38 79  1  0  0  0  0
 39  9  1  0  0  0  0
 39 80  1  0  0  0  0
 40 39  2  0  0  0  0
 41 82  1  0  0  0  0
 41  2  1  0  0  0  0
 42 41  2  0  0  0  0
 44 86  1  0  0  0  0
 44 43  1  0  0  0  0
 45 46  1  6  0  0  0
 45 44  1  0  0  0  0
 45 47  1  0  0  0  0
 47 48  1  0  0  0  0
 47 87  1  0  0  0  0
 48 49  1  0  0  0  0
 49 89  1  0  0  0  0
 49 90  1  0  0  0  0
 50 48  2  0  0  0  0
 51 45  1  0  0  0  0
 52 51  1  0  0  0  0
 52 91  1  0  0  0  0
 53 93  1  0  0  0  0
 53 52  1  0  0  0  0
 54 51  2  0  0  0  0
 55  4  1  0  0  0  0
 56  4  1  0  0  0  0
 57  5  1  0  0  0  0
 58  5  1  0  0  0  0
 63 21  1  0  0  0  0
 65 25  1  0  0  0  0
 66 29  1  0  0  0  0
 67 31  1  0  0  0  0
 69 31  1  0  0  0  0
 70 32  1  0  0  0  0
 71 32  1  0  0  0  0
 75 33  1  0  0  0  0
 76 35  1  0  0  0  0
 78 37  1  0  0  0  0
 81 40  1  0  0  0  0
 83 42  1  0  0  0  0
 84 42  1  0  0  0  0
 85 44  1  0  0  0  0
 88 49  1  0  0  0  0
 92 53  1  0  0  0  0
 94 53  1  0  0  0  0
M  END
