-1 1
 OpenBabel05192410563D

 77 81  0  0  1  0  0  0  0  0999 V2000
    4.1426   -2.0869   -0.9251 O   0  0  0  0  0  0  0  0  0  0  0  0
    3.0918   -1.5420   -0.5799 C   0  0  0  0  0  0  0  0  0  0  0  0
    2.3406   -2.2575    0.4718 N   0  0  0  0  0  0  0  0  0  0  0  0
    1.1044   -2.8361    0.3530 C   0  0  0  0  0  0  0  0  0  0  0  0
    0.5925   -3.6142    1.4313 C   0  0  0  0  0  0  0  0  0  0  0  0
    1.4240   -3.7885    2.6709 C   0  0  0  0  0  0  0  0  0  0  0  0
   -0.6751   -4.1810    1.3267 C   0  0  0  0  0  0  0  0  0  0  0  0
   -1.4723   -4.0092    0.1958 C   0  0  0  0  0  0  0  0  0  0  0  0
   -0.9663   -3.2388   -0.8461 C   0  0  0  0  0  0  0  0  0  0  0  0
   -1.7847   -3.0579   -2.0252 N   0  0  0  0  0  0  0  0  0  0  0  0
   -1.4453   -3.9495   -3.0841 C   0  0  0  0  0  0  0  0  0  0  0  0
   -0.4907   -4.6869   -2.9902 O   0  0  0  0  0  0  0  0  0  0  0  0
   -2.3355   -3.9312   -4.2396 C   0  0  0  0  0  0  0  0  0  0  0  0
   -3.4539   -3.1817   -4.2485 C   0  0  0  0  0  0  0  0  0  0  0  0
   -2.8941   -2.2325   -2.0523 C   0  0  0  0  0  0  0  0  0  0  0  0
   -3.7708   -2.3226   -3.1448 C   0  0  0  0  0  0  0  0  0  0  0  0
   -4.9821   -1.5787   -3.1421 C   0  0  0  0  0  0  0  0  0  0  0  0
   -5.3670   -0.7826   -2.1934 N   0  0  0  0  0  0  0  0  0  0  0  0
   -4.5005   -0.5996   -1.1517 C   0  0  0  0  0  0  0  0  0  0  0  0
   -3.2382   -1.2571   -1.0303 C   0  0  0  0  0  0  0  0  0  0  0  0
   -2.3994   -0.8628    0.0421 C   0  0  0  0  0  0  0  0  0  0  0  0
   -2.7822    0.0703    0.9883 C   0  0  0  0  0  0  0  0  0  0  0  0
   -1.8318    0.4543    2.0567 C   0  0  0  0  0  0  0  0  0  0  0  0
   -1.7290    1.7664    2.5173 C   0  0  0  0  0  0  0  0  0  0  0  0
   -0.8259    2.1872    3.4021 N   0  0  0  0  0  0  0  0  0  0  0  0
    0.0488    1.3067    3.8867 C   0  0  0  0  0  0  0  0  0  0  0  0
    1.0084    1.7819    4.7553 N   0  0  0  0  0  0  0  0  0  0  0  0
   -0.0004   -0.0588    3.5417 C   0  0  0  0  0  0  0  0  0  0  0  0
   -0.9349   -0.4742    2.6172 C   0  0  0  0  0  0  0  0  0  0  0  0
   -4.0693    0.6537    0.8896 C   0  0  0  0  0  0  0  0  0  0  0  0
   -4.8939    0.3311   -0.1578 C   0  0  0  0  0  0  0  0  0  0  0  0
    0.2945   -2.6642   -0.7883 C   0  0  0  0  0  0  0  0  0  0  0  0
    2.5269   -0.3329   -1.0036 C   0  0  0  0  0  3  0  0  0  0  0  0
    1.4974    0.3933   -0.2652 C   0  0  0  0  0  0  0  0  0  0  0  0
    2.1074    1.3378    1.3152 S   0  0  0  0  0  0  0  0  0  0  0  0
    3.2892    2.4629    0.5373 C   0  0  0  0  0  0  0  0  0  0  0  0
    2.6774    3.7687   -0.0129 C   0  0  2  0  0  0  0  0  0  0  0  0
    1.7982    3.4964   -0.6202 H   0  0  0  0  0  0  0  0  0  0  0  0
    3.6127    4.4814   -0.8475 N   0  0  0  0  0  0  0  0  0  0  0  0
    3.7819    4.1931   -2.1618 C   0  0  0  0  0  0  0  0  0  0  0  0
    4.7734    5.0808   -2.8945 C   0  0  0  0  0  0  0  0  0  0  0  0
    3.2097    3.2768   -2.7215 O   0  0  0  0  0  0  0  0  0  0  0  0
    2.2481    4.7499    1.0904 C   0  0  0  0  0  0  0  0  0  0  0  0
    1.2412    4.3422    1.8846 N   0  0  0  0  0  0  0  0  0  0  0  0
    0.7837    5.1450    2.9903 C   0  0  0  0  0  0  0  0  0  0  0  0
    2.7982    5.8379    1.2200 O   0  0  0  0  0  0  0  0  0  0  0  0
    2.9952   -2.7732    1.0486 H   0  0  0  0  0  0  0  0  0  0  0  0
    2.3340   -4.3823    2.4732 H   0  0  0  0  0  0  0  0  0  0  0  0
    0.8602   -4.3003    3.4636 H   0  0  0  0  0  0  0  0  0  0  0  0
    1.7635   -2.8112    3.0538 H   0  0  0  0  0  0  0  0  0  0  0  0
   -1.0565   -4.7720    2.1645 H   0  0  0  0  0  0  0  0  0  0  0  0
   -2.4678   -4.4499    0.1270 H   0  0  0  0  0  0  0  0  0  0  0  0
   -2.0550   -4.5942   -5.0582 H   0  0  0  0  0  0  0  0  0  0  0  0
   -4.1401   -3.2076   -5.1001 H   0  0  0  0  0  0  0  0  0  0  0  0
   -5.6559   -1.7018   -4.0013 H   0  0  0  0  0  0  0  0  0  0  0  0
   -1.3942   -1.2620    0.1048 H   0  0  0  0  0  0  0  0  0  0  0  0
   -2.3935    2.5396    2.1146 H   0  0  0  0  0  0  0  0  0  0  0  0
    1.1214    2.7881    4.7073 H   0  0  0  0  0  0  0  0  0  0  0  0
    1.8922    1.2874    4.7185 H   0  0  0  0  0  0  0  0  0  0  0  0
    0.7145   -0.7618    3.9710 H   0  0  0  0  0  0  0  0  0  0  0  0
   -0.9679   -1.5239    2.3149 H   0  0  0  0  0  0  0  0  0  0  0  0
   -4.4028    1.3648    1.6490 H   0  0  0  0  0  0  0  0  0  0  0  0
   -5.8794    0.7846   -0.2748 H   0  0  0  0  0  0  0  0  0  0  0  0
    0.6753   -2.0611   -1.6145 H   0  0  0  0  0  0  0  0  0  0  0  0
    3.0604    0.1952   -1.7972 H   0  0  0  0  0  0  0  0  0  0  0  0
    0.7050   -0.2171    0.1918 H   0  0  0  0  0  0  0  0  0  0  0  0
    1.0146    1.1761   -0.8667 H   0  0  0  0  0  0  0  0  0  0  0  0
    3.7476    1.9101   -0.2989 H   0  0  0  0  0  0  0  0  0  0  0  0
    4.0836    2.6991    1.2615 H   0  0  0  0  0  0  0  0  0  0  0  0
    3.9628    5.3428   -0.4385 H   0  0  0  0  0  0  0  0  0  0  0  0
    5.0570    5.9807   -2.3310 H   0  0  0  0  0  0  0  0  0  0  0  0
    5.6785    4.4917   -3.1033 H   0  0  0  0  0  0  0  0  0  0  0  0
    4.3378    5.3700   -3.8601 H   0  0  0  0  0  0  0  0  0  0  0  0
    0.9456    3.3648    1.8150 H   0  0  0  0  0  0  0  0  0  0  0  0
    1.5785    5.3016    3.7411 H   0  0  0  0  0  0  0  0  0  0  0  0
   -0.0642    4.6255    3.4558 H   0  0  0  0  0  0  0  0  0  0  0  0
    0.4655    6.1410    2.6462 H   0  0  0  0  0  0  0  0  0  0  0  0
  1  2  2  0  0  0  0
  2  3  1  0  0  0  0
  3 47  1  0  0  0  0
  4  3  1  0  0  0  0
  4  5  1  0  0  0  0
  5  6  1  0  0  0  0
  6 50  1  0  0  0  0
  6 49  1  0  0  0  0
  7  5  2  0  0  0  0
  7 51  1  0  0  0  0
  8  7  1  0  0  0  0
  9 32  1  0  0  0  0
  9  8  2  0  0  0  0
 10  9  1  0  0  0  0
 11 12  2  0  0  0  0
 11 10  1  0  0  0  0
 13 11  1  0  0  0  0
 14 13  2  0  0  0  0
 14 16  1  0  0  0  0
 15 10  1  0  0  0  0
 15 20  1  0  0  0  0
 16 17  1  0  0  0  0
 16 15  2  0  0  0  0
 17 18  2  0  0  0  0
 18 19  1  0  0  0  0
 19 20  2  0  0  0  0
 19 31  1  0  0  0  0
 20 21  1  0  0  0  0
 21 56  1  0  0  0  0
 21 22  2  0  0  0  0
 22 23  1  0  0  0  0
 23 24  2  0  0  0  0
 23 29  1  0  0  0  0
 24 25  1  0  0  0  0
 25 26  2  0  0  0  0
 26 27  1  0  0  0  0
 28 26  1  0  0  0  0
 28 60  1  0  0  0  0
 29 28  2  0  0  0  0
 30 22  1  0  0  0  0
 30 62  1  0  0  0  0
 31 30  2  0  0  0  0
 32  4  2  0  0  0  0
 33  2  1  0  0  0  0
 33 34  1  0  0  0  0
 34 66  1  0  0  0  0
 34 35  1  0  0  0  0
 36 69  1  0  0  0  0
 36 35  1  0  0  0  0
 37 38  1  6  0  0  0
 37 36  1  0  0  0  0
 37 43  1  0  0  0  0
 39 70  1  0  0  0  0
 39 37  1  0  0  0  0
 40 39  1  0  0  0  0
 41 71  1  0  0  0  0
 41 40  1  0  0  0  0
 42 40  2  0  0  0  0
 43 46  2  0  0  0  0
 43 44  1  0  0  0  0
 44 45  1  0  0  0  0
 45 76  1  0  0  0  0
 45 75  1  0  0  0  0
 48  6  1  0  0  0  0
 52  8  1  0  0  0  0
 53 13  1  0  0  0  0
 54 14  1  0  0  0  0
 55 17  1  0  0  0  0
 57 24  1  0  0  0  0
 58 27  1  0  0  0  0
 59 27  1  0  0  0  0
 61 29  1  0  0  0  0
 63 31  1  0  0  0  0
 64 32  1  0  0  0  0
 65 33  1  0  0  0  0
 67 34  1  0  0  0  0
 68 36  1  0  0  0  0
 72 41  1  0  0  0  0
 73 41  1  0  0  0  0
 74 44  1  0  0  0  0
 77 45  1  0  0  0  0
M  END
