77
-1 1
O         3.824012   -0.053490   -1.144049
C         2.653659   -0.289734   -0.932724
N         2.308339   -1.437484   -0.234125
C         1.117007   -2.152691   -0.140388
C         0.864066   -2.887697    1.040314
C         1.822578   -2.806186    2.195842
C        -0.290386   -3.670715    1.100872
C        -1.207061   -3.717010    0.053914
C        -0.960117   -2.954931   -1.082439
N        -1.908885   -2.981316   -2.168021
C        -1.488619   -3.789854   -3.263464
O        -0.376345   -4.269806   -3.285417
C        -2.482878   -4.015075   -4.304180
C        -3.731766   -3.522818   -4.194953
C        -3.167844   -2.403072   -2.081485
C        -4.108301   -2.709976   -3.075647
C        -5.441789   -2.227681   -2.960018
N        -5.884887   -1.498450   -1.984868
C        -4.980634   -1.115346   -1.033693
C        -3.601651   -1.492271   -1.035205
C        -2.768853   -0.912419   -0.044445
C        -3.253272   -0.084530    0.954883
C        -2.320212    0.457293    1.965342
C        -2.422198    1.753804    2.469331
N        -1.537700    2.317334    3.290341
C        -0.468946    1.605873    3.669711
N         0.473956    2.206978    4.451686
C        -0.304074    0.253900    3.280010
C        -1.226182   -0.302612    2.426557
C        -4.636976    0.221668    0.970804
C        -5.465489   -0.269052   -0.005638
C         0.203189   -2.205175   -1.199641
C         1.596489    0.687210   -1.324075
C         0.573841    1.014863   -0.531742
S         2.984138    0.924611    2.636950
C         4.227283    1.939094    1.752546
C         3.685025    2.811398    0.602398
H         3.061283    2.183966   -0.041779
N         4.766041    3.298403   -0.223573
C         4.569400    3.601650   -1.535785
C         5.689800    4.415137   -2.162737
O         3.586518    3.271652   -2.171658
C         2.830221    4.005654    1.054110
N         1.659608    3.669375    1.641896
C         0.792965    4.681161    2.186052
O         3.177413    5.162930    0.862577
H         3.090696   -1.770564    0.318388
H         2.749926   -3.369357    1.989939
H         1.379096   -3.232092    3.106329
H         2.122206   -1.761618    2.395844
H        -0.487310   -4.244736    2.009899
H        -2.117221   -4.314470    0.125957
H        -2.155218   -4.630824   -5.141842
H        -4.482984   -3.726704   -4.963398
H        -6.155827   -2.510188   -3.745742
H        -1.698963   -1.080479   -0.074391
H        -3.253461    2.397125    2.154606
H         0.360008    3.210633    4.527432
H         1.438910    1.904569    4.249376
H         0.558656   -0.309476    3.634725
H        -1.105665   -1.337811    2.101736
H        -5.040439    0.851539    1.766856
H        -6.529501   -0.028836   -0.031332
H         0.396728   -1.654791   -2.118679
H         1.848501    1.281154   -2.206425
H         0.398626    0.509155    0.422136
H        -0.085020    1.849501   -0.782529
H         4.964595    1.267629    1.288576
H         4.772572    2.583878    2.465486
H         5.474658    3.836906    0.258858
H         6.679961    4.110935   -1.792795
H         5.647164    4.299114   -3.252214
H         5.535096    5.476202   -1.912027
H         1.602182    2.697695    1.974328
H         1.190574    5.122383    3.120006
H        -0.196475    4.248912    2.390662
H         0.689976    5.504272    1.464562
