77
-1 1
O         4.142604   -2.086885   -0.925083
C         3.091775   -1.542001   -0.579903
N         2.340557   -2.257504    0.471809
C         1.104408   -2.836150    0.353031
C         0.592498   -3.614240    1.431285
C         1.424037   -3.788477    2.670918
C        -0.675070   -4.181001    1.326667
C        -1.472329   -4.009197    0.195847
C        -0.966295   -3.238813   -0.846084
N        -1.784749   -3.057879   -2.025210
C        -1.445271   -3.949491   -3.084052
O        -0.490685   -4.686925   -2.990200
C        -2.335525   -3.931174   -4.239577
C        -3.453930   -3.181743   -4.248510
C        -2.894061   -2.232483   -2.052271
C        -3.770815   -2.322573   -3.144794
C        -4.982123   -1.578663   -3.142088
N        -5.366965   -0.782646   -2.193368
C        -4.500488   -0.599594   -1.151749
C        -3.238180   -1.257117   -1.030250
C        -2.399401   -0.862794    0.042144
C        -2.782191    0.070262    0.988266
C        -1.831800    0.454272    2.056715
C        -1.728978    1.766373    2.517270
N        -0.825916    2.187212    3.402089
C         0.048838    1.306670    3.886740
N         1.008422    1.781947    4.755291
C        -0.000408   -0.058830    3.541681
C        -0.934858   -0.474151    2.617211
C        -4.069288    0.653691    0.889608
C        -4.893926    0.331123   -0.157849
C         0.294470   -2.664157   -0.788336
C         2.526931   -0.332873   -1.003641
C         1.497417    0.393259   -0.265195
S         2.107368    1.337825    1.315231
C         3.289164    2.462933    0.537263
C         2.677384    3.768716   -0.012850
H         1.798193    3.496432   -0.620153
N         3.612657    4.481382   -0.847521
C         3.781871    4.193090   -2.161779
C         4.773351    5.080783   -2.894475
O         3.209690    3.276782   -2.721453
C         2.248089    4.749919    1.090387
N         1.241230    4.342170    1.884578
C         0.783695    5.144972    2.990326
O         2.798234    5.837867    1.219959
H         2.995150   -2.773242    1.048641
H         2.333958   -4.382299    2.473231
H         0.860189   -4.300269    3.463576
H         1.763479   -2.811157    3.053848
H        -1.056481   -4.771955    2.164516
H        -2.467812   -4.449893    0.127027
H        -2.054977   -4.594153   -5.058159
H        -4.140071   -3.207604   -5.100062
H        -5.655875   -1.701753   -4.001301
H        -1.394183   -1.261959    0.104846
H        -2.393506    2.539575    2.114577
H         1.121401    2.788056    4.707344
H         1.892240    1.287449    4.718454
H         0.714485   -0.761805    3.971023
H        -0.967909   -1.523900    2.314877
H        -4.402765    1.364849    1.648956
H        -5.879380    0.784650   -0.274844
H         0.675289   -2.061116   -1.614537
H         3.060449    0.195228   -1.797157
H         0.705014   -0.217149    0.191802
H         1.014589    1.176119   -0.866657
H         3.747589    1.910068   -0.298875
H         4.083599    2.699071    1.261509
H         3.962784    5.342778   -0.438548
H         5.057012    5.980681   -2.330970
H         5.678535    4.491732   -3.103327
H         4.337812    5.369960   -3.860134
H         0.945618    3.364839    1.815042
H         1.578473    5.301570    3.741066
H        -0.064159    4.625488    3.455848
H         0.465516    6.141041    2.646244
