-1 1
 OpenBabel05232413493D

 77 80  0  0  1  0  0  0  0  0999 V2000
    3.8240   -0.0535   -1.1440 O   0  0  0  0  0  0  0  0  0  0  0  0
    2.6537   -0.2897   -0.9327 C   0  0  0  0  0  0  0  0  0  0  0  0
    2.3083   -1.4375   -0.2341 N   0  0  0  0  0  0  0  0  0  0  0  0
    1.1170   -2.1527   -0.1404 C   0  0  0  0  0  0  0  0  0  0  0  0
    0.8641   -2.8877    1.0403 C   0  0  0  0  0  0  0  0  0  0  0  0
    1.8226   -2.8062    2.1958 C   0  0  0  0  0  0  0  0  0  0  0  0
   -0.2904   -3.6707    1.1009 C   0  0  0  0  0  0  0  0  0  0  0  0
   -1.2071   -3.7170    0.0539 C   0  0  0  0  0  0  0  0  0  0  0  0
   -0.9601   -2.9549   -1.0824 C   0  0  0  0  0  0  0  0  0  0  0  0
   -1.9089   -2.9813   -2.1680 N   0  0  0  0  0  0  0  0  0  0  0  0
   -1.4886   -3.7899   -3.2635 C   0  0  0  0  0  0  0  0  0  0  0  0
   -0.3763   -4.2698   -3.2854 O   0  0  0  0  0  0  0  0  0  0  0  0
   -2.4829   -4.0151   -4.3042 C   0  0  0  0  0  0  0  0  0  0  0  0
   -3.7318   -3.5228   -4.1950 C   0  0  0  0  0  0  0  0  0  0  0  0
   -3.1678   -2.4031   -2.0815 C   0  0  0  0  0  0  0  0  0  0  0  0
   -4.1083   -2.7100   -3.0756 C   0  0  0  0  0  0  0  0  0  0  0  0
   -5.4418   -2.2277   -2.9600 C   0  0  0  0  0  0  0  0  0  0  0  0
   -5.8849   -1.4985   -1.9849 N   0  0  0  0  0  0  0  0  0  0  0  0
   -4.9806   -1.1153   -1.0337 C   0  0  0  0  0  0  0  0  0  0  0  0
   -3.6017   -1.4923   -1.0352 C   0  0  0  0  0  0  0  0  0  0  0  0
   -2.7689   -0.9124   -0.0444 C   0  0  0  0  0  0  0  0  0  0  0  0
   -3.2533   -0.0845    0.9549 C   0  0  0  0  0  0  0  0  0  0  0  0
   -2.3202    0.4573    1.9653 C   0  0  0  0  0  0  0  0  0  0  0  0
   -2.4222    1.7538    2.4693 C   0  0  0  0  0  0  0  0  0  0  0  0
   -1.5377    2.3173    3.2903 N   0  0  0  0  0  0  0  0  0  0  0  0
   -0.4689    1.6059    3.6697 C   0  0  0  0  0  0  0  0  0  0  0  0
    0.4740    2.2070    4.4517 N   0  0  0  0  0  0  0  0  0  0  0  0
   -0.3041    0.2539    3.2800 C   0  0  0  0  0  0  0  0  0  0  0  0
   -1.2262   -0.3026    2.4266 C   0  0  0  0  0  0  0  0  0  0  0  0
   -4.6370    0.2217    0.9708 C   0  0  0  0  0  0  0  0  0  0  0  0
   -5.4655   -0.2691   -0.0056 C   0  0  0  0  0  0  0  0  0  0  0  0
    0.2032   -2.2052   -1.1996 C   0  0  0  0  0  0  0  0  0  0  0  0
    1.5965    0.6872   -1.3241 C   0  0  0  0  0  0  0  0  0  0  0  0
    0.5738    1.0149   -0.5317 C   0  0  0  0  0  0  0  0  0  0  0  0
    2.9841    0.9246    2.6370 S   0  0  0  0  0  1  0  0  0  0  0  0
    4.2273    1.9391    1.7525 C   0  0  0  0  0  0  0  0  0  0  0  0
    3.6850    2.8114    0.6024 C   0  0  2  0  0  0  0  0  0  0  0  0
    3.0613    2.1840   -0.0418 H   0  0  0  0  0  0  0  0  0  0  0  0
    4.7660    3.2984   -0.2236 N   0  0  0  0  0  0  0  0  0  0  0  0
    4.5694    3.6016   -1.5358 C   0  0  0  0  0  0  0  0  0  0  0  0
    5.6898    4.4151   -2.1627 C   0  0  0  0  0  0  0  0  0  0  0  0
    3.5865    3.2717   -2.1717 O   0  0  0  0  0  0  0  0  0  0  0  0
    2.8302    4.0057    1.0541 C   0  0  0  0  0  0  0  0  0  0  0  0
    1.6596    3.6694    1.6419 N   0  0  0  0  0  0  0  0  0  0  0  0
    0.7930    4.6812    2.1861 C   0  0  0  0  0  0  0  0  0  0  0  0
    3.1774    5.1629    0.8626 O   0  0  0  0  0  0  0  0  0  0  0  0
    3.0907   -1.7706    0.3184 H   0  0  0  0  0  0  0  0  0  0  0  0
    2.7499   -3.3694    1.9899 H   0  0  0  0  0  0  0  0  0  0  0  0
    1.3791   -3.2321    3.1063 H   0  0  0  0  0  0  0  0  0  0  0  0
    2.1222   -1.7616    2.3958 H   0  0  0  0  0  0  0  0  0  0  0  0
   -0.4873   -4.2447    2.0099 H   0  0  0  0  0  0  0  0  0  0  0  0
   -2.1172   -4.3145    0.1260 H   0  0  0  0  0  0  0  0  0  0  0  0
   -2.1552   -4.6308   -5.1418 H   0  0  0  0  0  0  0  0  0  0  0  0
   -4.4830   -3.7267   -4.9634 H   0  0  0  0  0  0  0  0  0  0  0  0
   -6.1558   -2.5102   -3.7457 H   0  0  0  0  0  0  0  0  0  0  0  0
   -1.6990   -1.0805   -0.0744 H   0  0  0  0  0  0  0  0  0  0  0  0
   -3.2535    2.3971    2.1546 H   0  0  0  0  0  0  0  0  0  0  0  0
    0.3600    3.2106    4.5274 H   0  0  0  0  0  0  0  0  0  0  0  0
    1.4389    1.9046    4.2494 H   0  0  0  0  0  0  0  0  0  0  0  0
    0.5587   -0.3095    3.6347 H   0  0  0  0  0  0  0  0  0  0  0  0
   -1.1057   -1.3378    2.1017 H   0  0  0  0  0  0  0  0  0  0  0  0
   -5.0404    0.8515    1.7669 H   0  0  0  0  0  0  0  0  0  0  0  0
   -6.5295   -0.0288   -0.0313 H   0  0  0  0  0  0  0  0  0  0  0  0
    0.3967   -1.6548   -2.1187 H   0  0  0  0  0  0  0  0  0  0  0  0
    1.8485    1.2812   -2.2064 H   0  0  0  0  0  0  0  0  0  0  0  0
    0.3986    0.5092    0.4221 H   0  0  0  0  0  0  0  0  0  0  0  0
   -0.0850    1.8495   -0.7825 H   0  0  0  0  0  0  0  0  0  0  0  0
    4.9646    1.2676    1.2886 H   0  0  0  0  0  0  0  0  0  0  0  0
    4.7726    2.5839    2.4655 H   0  0  0  0  0  0  0  0  0  0  0  0
    5.4747    3.8369    0.2589 H   0  0  0  0  0  0  0  0  0  0  0  0
    6.6800    4.1109   -1.7928 H   0  0  0  0  0  0  0  0  0  0  0  0
    5.6472    4.2991   -3.2522 H   0  0  0  0  0  0  0  0  0  0  0  0
    5.5351    5.4762   -1.9120 H   0  0  0  0  0  0  0  0  0  0  0  0
    1.6022    2.6977    1.9743 H   0  0  0  0  0  0  0  0  0  0  0  0
    1.1906    5.1224    3.1200 H   0  0  0  0  0  0  0  0  0  0  0  0
   -0.1965    4.2489    2.3907 H   0  0  0  0  0  0  0  0  0  0  0  0
    0.6900    5.5043    1.4646 H   0  0  0  0  0  0  0  0  0  0  0  0
  1  2  2  0  0  0  0
  2  3  1  0  0  0  0
  3  4  1  0  0  0  0
  3 47  1  0  0  0  0
  4  5  1  0  0  0  0
  5  7  2  0  0  0  0
  5  6  1  0  0  0  0
  6 50  1  0  0  0  0
  6 49  1  0  0  0  0
  7 51  1  0  0  0  0
  8 52  1  0  0  0  0
  8  7  1  0  0  0  0
  9  8  2  0  0  0  0
 10 15  1  0  0  0  0
 10  9  1  0  0  0  0
 11 10  1  0  0  0  0
 12 11  2  0  0  0  0
 13 14  2  0  0  0  0
 13 11  1  0  0  0  0
 14 16  1  0  0  0  0
 15 20  1  0  0  0  0
 16 17  1  0  0  0  0
 16 15  2  0  0  0  0
 17 18  2  0  0  0  0
 18 19  1  0  0  0  0
 19 31  1  0  0  0  0
 20 19  2  0  0  0  0
 20 21  1  0  0  0  0
 21 22  2  0  0  0  0
 22 30  1  0  0  0  0
 22 23  1  0  0  0  0
 23 29  2  0  0  0  0
 23 24  1  0  0  0  0
 24 25  2  0  0  0  0
 25 26  1  0  0  0  0
 26 27  1  0  0  0  0
 27 58  1  0  0  0  0
 28 60  1  0  0  0  0
 28 26  2  0  0  0  0
 29 28  1  0  0  0  0
 30 62  1  0  0  0  0
 31 30  2  0  0  0  0
 32  9  1  0  0  0  0
 32  4  2  0  0  0  0
 33  2  1  0  0  0  0
 33 34  2  0  0  0  0
 34 66  1  0  0  0  0
 36 69  1  0  0  0  0
 36 35  1  0  0  0  0
 37 38  1  6  0  0  0
 37 43  1  0  0  0  0
 37 36  1  0  0  0  0
 39 70  1  0  0  0  0
 39 37  1  0  0  0  0
 40 39  1  0  0  0  0
 41 73  1  0  0  0  0
 41 71  1  0  0  0  0
 41 40  1  0  0  0  0
 42 40  2  0  0  0  0
 43 44  1  0  0  0  0
 44 74  1  0  0  0  0
 44 45  1  0  0  0  0
 45 76  1  0  0  0  0
 45 75  1  0  0  0  0
 46 43  2  0  0  0  0
 48  6  1  0  0  0  0
 53 13  1  0  0  0  0
 54 14  1  0  0  0  0
 55 17  1  0  0  0  0
 56 21  1  0  0  0  0
 57 24  1  0  0  0  0
 59 27  1  0  0  0  0
 61 29  1  0  0  0  0
 63 31  1  0  0  0  0
 64 32  1  0  0  0  0
 65 33  1  0  0  0  0
 67 34  1  0  0  0  0
 68 36  1  0  0  0  0
 72 41  1  0  0  0  0
 77 45  1  0  0  0  0
M  END
