77
-1 1
O         6.468305   12.093429    0.981974
C         5.358022   12.430691    1.374444
N         4.710754   11.531190    2.299440
C         3.431099   11.015796    2.257630
C         2.941908   10.306007    3.384701
C         3.802232   10.190574    4.611687
C         1.661007    9.755652    3.339746
C         0.836530    9.897709    2.226381
C         1.317462   10.624422    1.141527
N         0.479409   10.770751   -0.025412
C         0.815450    9.858696   -1.068534
O         1.778126    9.131591   -0.967563
C        -0.083755    9.846223   -2.215485
C        -1.201711   10.596177   -2.233265
C        -0.631740   11.596064   -0.060793
C        -1.512215   11.479813   -1.147723
C        -2.724626   12.221780   -1.158743
N        -3.108197   13.032718   -0.223317
C        -2.242067   13.234394    0.815052
C        -0.973886   12.588066    0.946296
C        -0.139588   13.002264    2.017304
C        -0.539649   13.934020    2.959368
C         0.377909   14.326321    4.052983
C         0.438304   15.635858    4.530862
N         1.285709   16.060802    5.465708
C         2.147731   15.188139    5.987600
N         3.044362   15.661877    6.921683
C         2.142732   13.826435    5.619711
C         1.263618   13.406943    4.644844
C        -1.831979   14.504617    2.847897
C        -2.646946   14.171320    1.797458
C         2.593482   11.167262    1.139227
C         4.671940   13.649242    1.075860
C         3.684316   14.192640    1.906309
S         4.529392   15.175420    3.762212
C         5.728567   16.193046    2.869493
C         5.146308   17.471284    2.224892
H         4.294136   17.164196    1.596746
N         6.117048   18.133610    1.386540
C         6.324781   17.794857    0.092121
C         7.347258   18.648232   -0.640734
O         5.765688   16.863484   -0.458004
C         4.664261   18.521451    3.239478
N         3.612571   18.155046    3.994801
C         3.111656   18.996813    5.049892
O         5.204149   19.620042    3.323647
H         5.399911   10.952025    2.764904
H         4.676877    9.538258    4.442069
H         3.238364    9.771595    5.457035
H         4.195498   11.179956    4.898201
H         1.291853    9.210349    4.212884
H        -0.168079    9.472918    2.204523
H         0.191319    9.164969   -3.020745
H        -1.893720   10.551142   -3.079187
H        -3.399178   12.082451   -2.014748
H         0.870906   12.617097    2.088489
H        -0.217962   16.402829    4.103206
H         3.122258   16.672801    6.892309
H         3.956157   15.219261    6.861338
H         2.847216   13.131825    6.078631
H         1.260244   12.360169    4.330661
H        -2.177111   15.214206    3.603155
H        -3.635374   14.615835    1.671850
H         2.951124   11.730190    0.277270
H         5.150292   14.287329    0.329270
H         3.050497   13.540952    2.510855
H         3.149620   15.074466    1.543776
H         6.143343   15.578308    2.051739
H         6.560284   16.467240    3.537246
H         6.456323   19.013096    1.765430
H         7.626556   19.562556   -0.098561
H         8.250395   18.042364   -0.805917
H         6.941802   18.911528   -1.626820
H         3.403504   17.148176    4.014678
H         3.844151   19.122728    5.868281
H         2.197377   18.535753    5.448047
H         2.881360   20.001973    4.666306
