76
-1 1
O         6.645497    5.105018   -9.177805
C         7.206130    4.866417  -10.241279
N         6.798641    3.664166  -10.939185
C         5.947939    3.662033  -12.037639
C         5.182531    2.498159  -12.312216
C         5.253204    1.311857  -11.392734
C         4.356912    2.494590  -13.434299
C         4.226164    3.604933  -14.266444
C         4.947229    4.746259  -13.949309
N         4.713530    5.956037  -14.693329
C         5.620979    6.143937  -15.771016
O         6.519622    5.353698  -15.960176
C         5.372572    7.311177  -16.606494
C         4.321509    8.121182  -16.373229
C         3.654301    6.801594  -14.408928
C         3.430592    7.883618  -15.274214
C         2.310707    8.734963  -15.068336
N         1.439968    8.601376  -14.117897
C         1.645170    7.587441  -13.223316
C         2.739513    6.667574  -13.280807
C         2.835860    5.720248  -12.227188
C         1.918535    5.642493  -11.196100
C         2.096707    4.616178  -10.154363
C         1.124921    3.805882   -9.590514
N         1.756171    2.972641   -8.729417
C         1.184089    1.905192   -7.947971
N         3.071847    3.187863   -8.688105
C         3.300932    4.176515   -9.538820
C         0.822342    6.537321  -11.184638
C         0.699279    7.481412  -12.172608
C         5.831714    4.774627  -12.879956
C         8.251089    5.659526  -10.814347
C         9.048256    5.294308  -11.876628
S        11.186372    4.097578  -11.223515
C        11.109287    2.275689  -11.438536
C         9.752563    1.567738  -11.286591
H         9.955656    0.486201  -11.368609
N         8.826969    1.880743  -12.354505
C         8.864973    1.267370  -13.563045
C         7.819989    1.742646  -14.556777
O         9.657938    0.379357  -13.831109
C         9.002943    1.715541   -9.950435
N         9.474453    2.632576   -9.089364
C         8.842607    2.868396   -7.814029
O         8.026868    1.008304   -9.711414
H         6.589029    2.933929  -10.260955
H         4.834962    1.563304  -10.401844
H         6.288475    0.973299  -11.222604
H         4.670682    0.472490  -11.796637
H         3.778276    1.593075  -13.651307
H         3.545392    3.601458  -15.118516
H         6.072471    7.463493  -17.428160
H         4.127655    8.983441  -17.017761
H         2.162564    9.562036  -15.776239
H         3.649990    5.011996  -12.194161
H         0.051980    3.748435   -9.762939
H         1.522780    1.988823   -6.906729
H         1.493140    0.926053   -8.342632
H         0.089646    1.979251   -7.980955
H         4.316133    4.565533   -9.649190
H         0.094127    6.490413  -10.371208
H        -0.118690    8.203414  -12.180044
H         6.385660    5.686521  -12.659031
H         8.488178    6.558356  -10.240937
H         9.734682    6.022115  -12.307345
H         8.780540    4.478082  -12.546200
H        11.802935    1.824488  -10.709295
H        11.480624    2.003122  -12.436898
H         8.141981    2.603150  -12.165254
H         8.206214    1.580638  -15.570455
H         7.541090    2.799518  -14.435082
H         6.907091    1.139723  -14.434760
H        10.139063    3.327792   -9.468748
H         8.029883    3.610877   -7.885667
H         9.591168    3.236249   -7.097615
H         8.415159    1.927165   -7.443134
