-1 1
 OpenBabel05232414493D

 76 79  0  0  1  0  0  0  0  0999 V2000
    6.6455    5.1050   -9.1778 O   0  0  0  0  0  0  0  0  0  0  0  0
    7.2061    4.8664  -10.2413 C   0  0  0  0  0  0  0  0  0  0  0  0
    6.7986    3.6642  -10.9392 N   0  0  0  0  0  0  0  0  0  0  0  0
    5.9479    3.6620  -12.0376 C   0  0  0  0  0  0  0  0  0  0  0  0
    5.1825    2.4982  -12.3122 C   0  0  0  0  0  0  0  0  0  0  0  0
    5.2532    1.3119  -11.3927 C   0  0  0  0  0  0  0  0  0  0  0  0
    4.3569    2.4946  -13.4343 C   0  0  0  0  0  0  0  0  0  0  0  0
    4.2262    3.6049  -14.2664 C   0  0  0  0  0  0  0  0  0  0  0  0
    4.9472    4.7463  -13.9493 C   0  0  0  0  0  0  0  0  0  0  0  0
    4.7135    5.9560  -14.6933 N   0  0  0  0  0  0  0  0  0  0  0  0
    5.6210    6.1439  -15.7710 C   0  0  0  0  0  0  0  0  0  0  0  0
    6.5196    5.3537  -15.9602 O   0  0  0  0  0  0  0  0  0  0  0  0
    5.3726    7.3112  -16.6065 C   0  0  0  0  0  0  0  0  0  0  0  0
    4.3215    8.1212  -16.3732 C   0  0  0  0  0  0  0  0  0  0  0  0
    3.6543    6.8016  -14.4089 C   0  0  0  0  0  0  0  0  0  0  0  0
    3.4306    7.8836  -15.2742 C   0  0  0  0  0  0  0  0  0  0  0  0
    2.3107    8.7350  -15.0683 C   0  0  0  0  0  0  0  0  0  0  0  0
    1.4400    8.6014  -14.1179 N   0  0  0  0  0  0  0  0  0  0  0  0
    1.6452    7.5874  -13.2233 C   0  0  0  0  0  0  0  0  0  0  0  0
    2.7395    6.6676  -13.2808 C   0  0  0  0  0  0  0  0  0  0  0  0
    2.8359    5.7202  -12.2272 C   0  0  0  0  0  0  0  0  0  0  0  0
    1.9185    5.6425  -11.1961 C   0  0  0  0  0  0  0  0  0  0  0  0
    2.0967    4.6162  -10.1544 C   0  0  0  0  0  0  0  0  0  0  0  0
    1.1249    3.8059   -9.5905 C   0  0  0  0  0  0  0  0  0  0  0  0
    1.7562    2.9726   -8.7294 N   0  0  0  0  0  0  0  0  0  0  0  0
    1.1841    1.9052   -7.9480 C   0  0  0  0  0  0  0  0  0  0  0  0
    3.0718    3.1879   -8.6881 N   0  0  0  0  0  0  0  0  0  0  0  0
    3.3009    4.1765   -9.5388 C   0  0  0  0  0  0  0  0  0  0  0  0
    0.8223    6.5373  -11.1846 C   0  0  0  0  0  0  0  0  0  0  0  0
    0.6993    7.4814  -12.1726 C   0  0  0  0  0  0  0  0  0  0  0  0
    5.8317    4.7746  -12.8800 C   0  0  0  0  0  0  0  0  0  0  0  0
    8.2511    5.6595  -10.8143 C   0  0  0  0  0  3  0  0  0  0  0  0
    9.0483    5.2943  -11.8766 C   0  0  0  0  0  3  0  0  0  0  0  0
   11.1864    4.0976  -11.2235 S   0  0  0  0  0  1  0  0  0  0  0  0
   11.1093    2.2757  -11.4385 C   0  0  0  0  0  0  0  0  0  0  0  0
    9.7526    1.5677  -11.2866 C   0  0  2  0  0  0  0  0  0  0  0  0
    9.9557    0.4862  -11.3686 H   0  0  0  0  0  0  0  0  0  0  0  0
    8.8270    1.8807  -12.3545 N   0  0  0  0  0  0  0  0  0  0  0  0
    8.8650    1.2674  -13.5630 C   0  0  0  0  0  0  0  0  0  0  0  0
    7.8200    1.7426  -14.5568 C   0  0  0  0  0  0  0  0  0  0  0  0
    9.6579    0.3794  -13.8311 O   0  0  0  0  0  0  0  0  0  0  0  0
    9.0029    1.7155   -9.9504 C   0  0  0  0  0  0  0  0  0  0  0  0
    9.4745    2.6326   -9.0894 N   0  0  0  0  0  0  0  0  0  0  0  0
    8.8426    2.8684   -7.8140 C   0  0  0  0  0  0  0  0  0  0  0  0
    8.0269    1.0083   -9.7114 O   0  0  0  0  0  0  0  0  0  0  0  0
    6.5890    2.9339  -10.2610 H   0  0  0  0  0  0  0  0  0  0  0  0
    4.8350    1.5633  -10.4018 H   0  0  0  0  0  0  0  0  0  0  0  0
    6.2885    0.9733  -11.2226 H   0  0  0  0  0  0  0  0  0  0  0  0
    4.6707    0.4725  -11.7966 H   0  0  0  0  0  0  0  0  0  0  0  0
    3.7783    1.5931  -13.6513 H   0  0  0  0  0  0  0  0  0  0  0  0
    3.5454    3.6015  -15.1185 H   0  0  0  0  0  0  0  0  0  0  0  0
    6.0725    7.4635  -17.4282 H   0  0  0  0  0  0  0  0  0  0  0  0
    4.1277    8.9834  -17.0178 H   0  0  0  0  0  0  0  0  0  0  0  0
    2.1626    9.5620  -15.7762 H   0  0  0  0  0  0  0  0  0  0  0  0
    3.6500    5.0120  -12.1942 H   0  0  0  0  0  0  0  0  0  0  0  0
    0.0520    3.7484   -9.7629 H   0  0  0  0  0  0  0  0  0  0  0  0
    1.5228    1.9888   -6.9067 H   0  0  0  0  0  0  0  0  0  0  0  0
    1.4931    0.9261   -8.3426 H   0  0  0  0  0  0  0  0  0  0  0  0
    0.0896    1.9793   -7.9810 H   0  0  0  0  0  0  0  0  0  0  0  0
    4.3161    4.5655   -9.6492 H   0  0  0  0  0  0  0  0  0  0  0  0
    0.0941    6.4904  -10.3712 H   0  0  0  0  0  0  0  0  0  0  0  0
   -0.1187    8.2034  -12.1800 H   0  0  0  0  0  0  0  0  0  0  0  0
    6.3857    5.6865  -12.6590 H   0  0  0  0  0  0  0  0  0  0  0  0
    8.4882    6.5584  -10.2409 H   0  0  0  0  0  0  0  0  0  0  0  0
    9.7347    6.0221  -12.3073 H   0  0  0  0  0  0  0  0  0  0  0  0
    8.7805    4.4781  -12.5462 H   0  0  0  0  0  0  0  0  0  0  0  0
   11.8029    1.8245  -10.7093 H   0  0  0  0  0  0  0  0  0  0  0  0
   11.4806    2.0031  -12.4369 H   0  0  0  0  0  0  0  0  0  0  0  0
    8.1420    2.6031  -12.1653 H   0  0  0  0  0  0  0  0  0  0  0  0
    8.2062    1.5806  -15.5705 H   0  0  0  0  0  0  0  0  0  0  0  0
    7.5411    2.7995  -14.4351 H   0  0  0  0  0  0  0  0  0  0  0  0
    6.9071    1.1397  -14.4348 H   0  0  0  0  0  0  0  0  0  0  0  0
   10.1391    3.3278   -9.4687 H   0  0  0  0  0  0  0  0  0  0  0  0
    8.0299    3.6109   -7.8857 H   0  0  0  0  0  0  0  0  0  0  0  0
    9.5912    3.2362   -7.0976 H   0  0  0  0  0  0  0  0  0  0  0  0
    8.4152    1.9272   -7.4431 H   0  0  0  0  0  0  0  0  0  0  0  0
  2  1  2  0  0  0  0
  3 46  1  0  0  0  0
  3  2  1  0  0  0  0
  4  3  1  0  0  0  0
  5  4  1  0  0  0  0
  5  6  1  0  0  0  0
  6 48  1  0  0  0  0
  6 47  1  0  0  0  0
  7  5  2  0  0  0  0
  8  9  2  0  0  0  0
  8  7  1  0  0  0  0
  9 31  1  0  0  0  0
 10 15  1  0  0  0  0
 10  9  1  0  0  0  0
 11 10  1  0  0  0  0
 12 11  2  0  0  0  0
 13 14  2  0  0  0  0
 13 11  1  0  0  0  0
 14 16  1  0  0  0  0
 15 20  1  0  0  0  0
 16 17  1  0  0  0  0
 16 15  2  0  0  0  0
 17 18  2  0  0  0  0
 18 19  1  0  0  0  0
 19 30  1  0  0  0  0
 20 19  2  0  0  0  0
 20 21  1  0  0  0  0
 21 55  1  0  0  0  0
 21 22  2  0  0  0  0
 22 29  1  0  0  0  0
 22 23  1  0  0  0  0
 23 24  2  0  0  0  0
 23 28  1  0  0  0  0
 24 25  1  0  0  0  0
 25 27  1  0  0  0  0
 25 26  1  0  0  0  0
 26 57  1  0  0  0  0
 28 27  2  0  0  0  0
 29 61  1  0  0  0  0
 30 29  2  0  0  0  0
 31 63  1  0  0  0  0
 31  4  2  0  0  0  0
 32  2  1  0  0  0  0
 32 64  1  0  0  0  0
 33 32  1  0  0  0  0
 35 36  1  0  0  0  0
 35 34  1  0  0  0  0
 35 67  1  0  0  0  0
 36 37  1  6  0  0  0
 36 42  1  0  0  0  0
 38 69  1  0  0  0  0
 38 36  1  0  0  0  0
 39 38  1  0  0  0  0
 40 71  1  0  0  0  0
 40 72  1  0  0  0  0
 40 39  1  0  0  0  0
 41 39  2  0  0  0  0
 42 45  2  0  0  0  0
 42 43  1  0  0  0  0
 43 44  1  0  0  0  0
 44 76  1  0  0  0  0
 44 75  1  0  0  0  0
 49  6  1  0  0  0  0
 50  7  1  0  0  0  0
 51  8  1  0  0  0  0
 52 13  1  0  0  0  0
 53 14  1  0  0  0  0
 54 17  1  0  0  0  0
 56 24  1  0  0  0  0
 58 26  1  0  0  0  0
 59 26  1  0  0  0  0
 60 28  1  0  0  0  0
 62 30  1  0  0  0  0
 65 33  1  0  0  0  0
 66 33  1  0  0  0  0
 68 35  1  0  0  0  0
 70 40  1  0  0  0  0
 73 43  1  0  0  0  0
 74 44  1  0  0  0  0
M  END
