76
-1 1
O         1.898131    0.895643    3.581300
C         1.798651    0.750771    2.380035
N         0.969828   -0.236058    1.865461
C         0.323141   -0.338882    0.633605
C        -0.245749   -1.579708    0.260190
C        -0.192603   -2.765330    1.178757
C        -0.881040   -1.670022   -0.979590
C        -1.019629   -0.576552   -1.827802
C        -0.541642    0.652538   -1.395250
N        -0.789617    1.828537   -2.188072
C         0.319277    2.213176   -2.990759
O         1.378832    1.632594   -2.895775
C         0.077011    3.307102   -3.921564
C        -1.134259    3.890111   -4.009000
C        -2.022194    2.458207   -2.218858
C        -2.215789    3.480982   -3.160058
C        -3.488034    4.104765   -3.275931
N        -4.527255    3.811940   -2.558652
C        -4.367226    2.858812   -1.592072
C        -3.146560    2.157224   -1.341990
C        -3.135346    1.251258   -0.248925
C        -4.244797    1.010715    0.540565
C        -4.149369    0.051655    1.651245
C        -5.163496   -0.686855    2.241363
N        -4.590468   -1.454298    3.198740
C        -5.225641   -2.423999    4.056663
N        -3.272783   -1.267222    3.278321
C        -2.987735   -0.364792    2.354762
C        -5.451871    1.691532    0.249280
C        -5.502309    2.587763   -0.786934
C         0.131464    0.778616   -0.189063
C         2.653673    1.558363    1.460862
C         3.264851    1.051128    0.389402
S         6.399081   -2.391753   -0.236881
C         5.223886   -3.690494    0.324762
C         3.791596   -3.176384    0.593173
H         3.088566   -4.018619    0.655944
N         3.364814   -2.343522   -0.516095
C         2.377919   -2.701956   -1.382356
C         2.281266   -1.807464   -2.602288
O         1.605195   -3.627679   -1.188418
C         3.634884   -2.418751    1.924003
N         4.627704   -1.561213    2.213509
C         4.683068   -0.793945    3.428642
O         2.651699   -2.594150    2.645110
H         0.885017   -1.024144    2.503196
H        -0.875738   -2.615565    2.034734
H         0.820355   -2.933477    1.576862
H        -0.498087   -3.672987    0.645131
H        -1.262297   -2.643871   -1.290172
H        -1.527100   -0.664213   -2.789454
H         0.924417    3.594888   -4.543854
H        -1.316023    4.695421   -4.726470
H        -3.604932    4.886981   -4.038359
H        -2.232339    0.711525   -0.000921
H        -6.230502   -0.736486    2.034832
H        -4.980130   -2.209935    5.105578
H        -4.879948   -3.438410    3.811365
H        -6.312841   -2.368741    3.919715
H        -1.959274   -0.029602    2.222120
H        -6.336247    1.521936    0.868110
H        -6.410527    3.144667   -1.022034
H         0.483094    1.761972    0.114874
H         2.881470    2.561771    1.831739
H         3.989714    1.636007   -0.180892
H         3.080345    0.025648    0.056043
H         5.592217   -4.183260    1.239896
H         5.144294   -4.470129   -0.449887
H         4.158169   -1.800720   -0.881884
H         3.267852   -1.661407   -3.067316
H         1.895628   -0.813892   -2.324241
H         1.593264   -2.263980   -3.323785
H         5.415366   -1.528538    1.538614
H         4.716691    0.286500    3.215820
H         5.573166   -1.060464    4.022427
H         3.780517   -0.994843    4.018544
