76
-1 1
O         0.821745    0.763556    2.876322
C         1.537349    0.512559    1.884560
N         1.181506   -0.750895    1.188549
C         0.301898   -0.751047    0.120009
C        -0.528999   -1.881043   -0.110457
C        -0.503745   -3.035557    0.852543
C        -1.366831   -1.878419   -1.223400
C        -1.444092   -0.790125   -2.092608
C        -0.654948    0.318923   -1.820629
N        -0.843990    1.519935   -2.592984
C         0.080591    1.672748   -3.657688
O         0.977577    0.871592   -3.816609
C        -0.146367    2.817734   -4.529024
C        -1.194553    3.642467   -4.334436
C        -1.889940    2.391198   -2.337963
C        -2.098536    3.446633   -3.238990
C        -3.218895    4.307042   -3.073230
N        -4.103164    4.202620   -2.131959
C        -3.907279    3.221100   -1.198721
C        -2.807932    2.305650   -1.207702
C        -2.709133    1.409316   -0.111050
C        -3.642941    1.357631    0.907081
C        -3.481377    0.362398    1.981491
C        -4.469545   -0.436083    2.533159
N        -3.862800   -1.254439    3.425149
C        -4.455297   -2.309026    4.206691
N        -2.546779   -1.039084    3.495887
C        -2.290127   -0.064654    2.634700
C        -4.749127    2.239355    0.865499
C        -4.865826    3.147019   -0.157379
C         0.242543    0.334805   -0.764190
C         2.591058    1.243351    1.367350
C         3.542901    0.819442    0.319679
S         5.186332    0.130283    0.990997
C         5.319373   -1.618573    0.464154
C         4.136651   -2.594766    0.600529
H         4.567403   -3.589544    0.396674
N         3.123397   -2.378468   -0.407800
C         3.288189   -2.755703   -1.701677
C         2.150168   -2.367043   -2.622403
O         4.285004   -3.347867   -2.086945
C         3.411073   -2.758450    1.952340
N         3.660568   -1.839965    2.906289
C         2.892946   -1.782016    4.130371
O         2.640426   -3.697394    2.099561
H         0.908977   -1.422233    1.901420
H        -0.879891   -2.721917    1.842716
H         0.515174   -3.431969    1.000316
H        -1.144888   -3.854284    0.497284
H        -1.999361   -2.751835   -1.403177
H        -2.137708   -0.781751   -2.934416
H         0.564850    2.939849   -5.346044
H        -1.374038    4.485363   -5.008243
H        -3.356726    5.111308   -3.809191
H        -1.879046    0.723325   -0.031100
H        -5.537476   -0.496541    2.331967
H        -4.137202   -2.215160    5.253765
H        -4.144595   -3.295562    3.831031
H        -5.548785   -2.230713    4.151860
H        -1.264030    0.319148    2.549598
H        -5.490368    2.213932    1.668166
H        -5.688882    3.862022   -0.201309
H         0.845038    1.220407   -0.555968
H         2.803493    2.177168    1.895425
H         3.878393    1.661221   -0.302686
H         3.157665    0.049708   -0.358282
H         6.162405   -1.993137    1.065981
H         5.632448   -1.667276   -0.587817
H         2.307399   -1.850597   -0.110859
H         2.310423   -2.839762   -3.598354
H         2.098864   -1.274682   -2.758259
H         1.180053   -2.679365   -2.209298
H         4.160426   -0.993862    2.620575
H         2.143652   -0.972338    4.086485
H         3.555914   -1.605086    4.990984
H         2.379440   -2.742319    4.263218
