73
-1 1
O        -0.147421   -1.917578    2.217368
C         0.543264   -2.522001    1.368711
N         0.185698   -2.286846   -0.011254
C        -0.188093   -1.042314   -0.469200
C        -0.974477   -0.913881   -1.642435
C        -1.451529   -2.145014   -2.355140
C        -1.324320    0.360453   -2.083188
C        -0.951930    1.513716   -1.392444
C        -0.211245    1.364217   -0.227309
N         0.122735    2.542502    0.536824
C         1.435668    3.014190    0.330329
O         2.243547    2.356805   -0.303613
C         1.733683    4.330583    0.872968
C         0.783393    5.056980    1.497716
C        -0.828192    3.224974    1.275622
C        -0.528002    4.522760    1.712030
C        -1.539717    5.300780    2.343395
N        -2.750787    4.898752    2.570010
C        -3.049826    3.602058    2.247666
C        -2.128615    2.692637    1.644515
C        -2.532221    1.340517    1.507529
C        -3.791705    0.901041    1.870266
C        -4.138014   -0.519948    1.703081
C        -5.383548   -1.049138    1.504793
O        -5.318609   -2.385662    1.364610
C        -4.011998   -2.730957    1.475836
C        -3.229272   -1.640975    1.681792
C        -4.716709    1.836856    2.395754
C        -4.348482    3.145558    2.582768
C         0.189665    0.117615    0.225502
C         1.591313   -3.405902    1.636145
C         2.555448   -3.963430    0.691236
S         4.222681   -2.987029    0.502686
C         3.564455   -1.440083   -0.162457
C         3.521349   -1.314555   -1.696643
H         4.555659   -1.308540   -2.081581
N         2.889545   -0.071087   -2.044820
C         2.891287    0.364086   -3.329519
C         2.063025    1.605990   -3.579176
O         3.496807   -0.219403   -4.214195
C         2.814486   -2.495152   -2.390992
N         3.605791   -3.575044   -2.610162
C         3.051675   -4.810684   -3.099270
O         1.641263   -2.466898   -2.720485
H         0.468599   -2.946210   -0.725385
H        -1.906322   -2.843210   -1.633557
H        -0.606795   -2.658802   -2.837748
H        -2.197227   -1.895852   -3.123433
H        -1.933286    0.453626   -2.986598
H        -1.259756    2.504518   -1.730691
H         2.746627    4.695115    0.702425
H         1.001200    6.064355    1.864187
H        -1.282960    6.326964    2.640824
H        -1.837029    0.599102    1.132794
H        -6.370332   -0.602120    1.413934
H        -3.788618   -3.791095    1.397438
H        -2.139191   -1.646238    1.836438
H        -5.713409    1.502935    2.694060
H        -5.026556    3.875672    3.027471
H         0.740094    0.026084    1.160516
H         1.772861   -3.571810    2.700898
H         2.189308   -4.059486   -0.341122
H         2.947344   -4.946761    0.992851
H         4.170469   -0.609995    0.226856
H         2.554386   -1.326274    0.262159
H         2.390622    0.463576   -1.336130
H         2.162273    2.325482   -2.754660
H         1.003886    1.311853   -3.637230
H         2.369179    2.054211   -4.532166
H         4.459578   -3.616945   -2.061944
H         2.548745   -5.391896   -2.304942
H         3.848986   -5.428964   -3.534769
H         2.308044   -4.586505   -3.874935
