-1 1
 OpenBabel05192410563D

 73 77  0  0  1  0  0  0  0  0999 V2000
   -0.1474   -1.9176    2.2174 O   0  0  0  0  0  0  0  0  0  0  0  0
    0.5433   -2.5220    1.3687 C   0  0  0  0  0  0  0  0  0  0  0  0
    0.1857   -2.2868   -0.0113 N   0  0  0  0  0  0  0  0  0  0  0  0
   -0.1881   -1.0423   -0.4692 C   0  0  0  0  0  0  0  0  0  0  0  0
   -0.9745   -0.9139   -1.6424 C   0  0  0  0  0  0  0  0  0  0  0  0
   -1.4515   -2.1450   -2.3551 C   0  0  0  0  0  0  0  0  0  0  0  0
   -1.3243    0.3605   -2.0832 C   0  0  0  0  0  0  0  0  0  0  0  0
   -0.9519    1.5137   -1.3924 C   0  0  0  0  0  0  0  0  0  0  0  0
   -0.2112    1.3642   -0.2273 C   0  0  0  0  0  0  0  0  0  0  0  0
    0.1227    2.5425    0.5368 N   0  0  0  0  0  0  0  0  0  0  0  0
    1.4357    3.0142    0.3303 C   0  0  0  0  0  0  0  0  0  0  0  0
    2.2435    2.3568   -0.3036 O   0  0  0  0  0  0  0  0  0  0  0  0
    1.7337    4.3306    0.8730 C   0  0  0  0  0  0  0  0  0  0  0  0
    0.7834    5.0570    1.4977 C   0  0  0  0  0  0  0  0  0  0  0  0
   -0.8282    3.2250    1.2756 C   0  0  0  0  0  0  0  0  0  0  0  0
   -0.5280    4.5228    1.7120 C   0  0  0  0  0  0  0  0  0  0  0  0
   -1.5397    5.3008    2.3434 C   0  0  0  0  0  0  0  0  0  0  0  0
   -2.7508    4.8988    2.5700 N   0  0  0  0  0  0  0  0  0  0  0  0
   -3.0498    3.6021    2.2477 C   0  0  0  0  0  0  0  0  0  0  0  0
   -2.1286    2.6926    1.6445 C   0  0  0  0  0  0  0  0  0  0  0  0
   -2.5322    1.3405    1.5075 C   0  0  0  0  0  0  0  0  0  0  0  0
   -3.7917    0.9010    1.8703 C   0  0  0  0  0  0  0  0  0  0  0  0
   -4.1380   -0.5199    1.7031 C   0  0  0  0  0  0  0  0  0  0  0  0
   -5.3835   -1.0491    1.5048 C   0  0  0  0  0  0  0  0  0  0  0  0
   -5.3186   -2.3857    1.3646 O   0  0  0  0  0  0  0  0  0  0  0  0
   -4.0120   -2.7310    1.4758 C   0  0  0  0  0  0  0  0  0  0  0  0
   -3.2293   -1.6410    1.6818 C   0  0  0  0  0  0  0  0  0  0  0  0
   -4.7167    1.8369    2.3958 C   0  0  0  0  0  0  0  0  0  0  0  0
   -4.3485    3.1456    2.5828 C   0  0  0  0  0  0  0  0  0  0  0  0
    0.1897    0.1176    0.2255 C   0  0  0  0  0  0  0  0  0  0  0  0
    1.5913   -3.4059    1.6361 C   0  0  0  0  0  3  0  0  0  0  0  0
    2.5554   -3.9634    0.6912 C   0  0  0  0  0  0  0  0  0  0  0  0
    4.2227   -2.9870    0.5027 S   0  0  0  0  0  0  0  0  0  0  0  0
    3.5645   -1.4401   -0.1625 C   0  0  0  0  0  0  0  0  0  0  0  0
    3.5213   -1.3146   -1.6966 C   0  0  2  0  0  0  0  0  0  0  0  0
    4.5557   -1.3085   -2.0816 H   0  0  0  0  0  0  0  0  0  0  0  0
    2.8895   -0.0711   -2.0448 N   0  0  0  0  0  0  0  0  0  0  0  0
    2.8913    0.3641   -3.3295 C   0  0  0  0  0  0  0  0  0  0  0  0
    2.0630    1.6060   -3.5792 C   0  0  0  0  0  0  0  0  0  0  0  0
    3.4968   -0.2194   -4.2142 O   0  0  0  0  0  0  0  0  0  0  0  0
    2.8145   -2.4952   -2.3910 C   0  0  0  0  0  0  0  0  0  0  0  0
    3.6058   -3.5750   -2.6102 N   0  0  0  0  0  0  0  0  0  0  0  0
    3.0517   -4.8107   -3.0993 C   0  0  0  0  0  0  0  0  0  0  0  0
    1.6413   -2.4669   -2.7205 O   0  0  0  0  0  0  0  0  0  0  0  0
    0.4686   -2.9462   -0.7254 H   0  0  0  0  0  0  0  0  0  0  0  0
   -1.9063   -2.8432   -1.6336 H   0  0  0  0  0  0  0  0  0  0  0  0
   -0.6068   -2.6588   -2.8377 H   0  0  0  0  0  0  0  0  0  0  0  0
   -2.1972   -1.8959   -3.1234 H   0  0  0  0  0  0  0  0  0  0  0  0
   -1.9333    0.4536   -2.9866 H   0  0  0  0  0  0  0  0  0  0  0  0
   -1.2598    2.5045   -1.7307 H   0  0  0  0  0  0  0  0  0  0  0  0
    2.7466    4.6951    0.7024 H   0  0  0  0  0  0  0  0  0  0  0  0
    1.0012    6.0644    1.8642 H   0  0  0  0  0  0  0  0  0  0  0  0
   -1.2830    6.3270    2.6408 H   0  0  0  0  0  0  0  0  0  0  0  0
   -1.8370    0.5991    1.1328 H   0  0  0  0  0  0  0  0  0  0  0  0
   -6.3703   -0.6021    1.4139 H   0  0  0  0  0  0  0  0  0  0  0  0
   -3.7886   -3.7911    1.3974 H   0  0  0  0  0  0  0  0  0  0  0  0
   -2.1392   -1.6462    1.8364 H   0  0  0  0  0  0  0  0  0  0  0  0
   -5.7134    1.5029    2.6941 H   0  0  0  0  0  0  0  0  0  0  0  0
   -5.0266    3.8757    3.0275 H   0  0  0  0  0  0  0  0  0  0  0  0
    0.7401    0.0261    1.1605 H   0  0  0  0  0  0  0  0  0  0  0  0
    1.7729   -3.5718    2.7009 H   0  0  0  0  0  0  0  0  0  0  0  0
    2.1893   -4.0595   -0.3411 H   0  0  0  0  0  0  0  0  0  0  0  0
    2.9473   -4.9468    0.9929 H   0  0  0  0  0  0  0  0  0  0  0  0
    4.1705   -0.6100    0.2269 H   0  0  0  0  0  0  0  0  0  0  0  0
    2.5544   -1.3263    0.2622 H   0  0  0  0  0  0  0  0  0  0  0  0
    2.3906    0.4636   -1.3361 H   0  0  0  0  0  0  0  0  0  0  0  0
    2.1623    2.3255   -2.7547 H   0  0  0  0  0  0  0  0  0  0  0  0
    1.0039    1.3119   -3.6372 H   0  0  0  0  0  0  0  0  0  0  0  0
    2.3692    2.0542   -4.5322 H   0  0  0  0  0  0  0  0  0  0  0  0
    4.4596   -3.6169   -2.0619 H   0  0  0  0  0  0  0  0  0  0  0  0
    2.5487   -5.3919   -2.3049 H   0  0  0  0  0  0  0  0  0  0  0  0
    3.8490   -5.4290   -3.5348 H   0  0  0  0  0  0  0  0  0  0  0  0
    2.3080   -4.5865   -3.8749 H   0  0  0  0  0  0  0  0  0  0  0  0
  2 31  1  0  0  0  0
  2  1  2  0  0  0  0
  3  2  1  0  0  0  0
  4  3  1  0  0  0  0
  4 30  1  0  0  0  0
  5  4  2  0  0  0  0
  6  5  1  0  0  0  0
  6 46  1  0  0  0  0
  7  5  1  0  0  0  0
  7  8  2  0  0  0  0
  8  9  1  0  0  0  0
  9 30  2  0  0  0  0
  9 10  1  0  0  0  0
 10 15  1  0  0  0  0
 11 10  1  0  0  0  0
 11 13  1  0  0  0  0
 12 11  2  0  0  0  0
 13 14  2  0  0  0  0
 14 16  1  0  0  0  0
 14 52  1  0  0  0  0
 15 20  2  0  0  0  0
 15 16  1  0  0  0  0
 16 17  2  0  0  0  0
 17 18  1  0  0  0  0
 17 53  1  0  0  0  0
 19 18  2  0  0  0  0
 19 29  1  0  0  0  0
 20 19  1  0  0  0  0
 21 20  1  0  0  0  0
 21 22  2  0  0  0  0
 22 28  1  0  0  0  0
 23 22  1  0  0  0  0
 24 23  2  0  0  0  0
 25 26  1  0  0  0  0
 25 24  1  0  0  0  0
 26 27  2  0  0  0  0
 27 23  1  0  0  0  0
 27 57  1  0  0  0  0
 28 29  2  0  0  0  0
 28 58  1  0  0  0  0
 29 59  1  0  0  0  0
 30 60  1  0  0  0  0
 31 61  1  0  0  0  0
 32 63  1  0  0  0  0
 32 31  1  0  0  0  0
 33 32  1  0  0  0  0
 34 64  1  0  0  0  0
 34 65  1  0  0  0  0
 34 33  1  0  0  0  0
 35 36  1  6  0  0  0
 35 34  1  0  0  0  0
 37 35  1  0  0  0  0
 37 66  1  0  0  0  0
 38 37  1  0  0  0  0
 39 38  1  0  0  0  0
 39 67  1  0  0  0  0
 40 38  2  0  0  0  0
 41 35  1  0  0  0  0
 42 41  1  0  0  0  0
 42 70  1  0  0  0  0
 43 42  1  0  0  0  0
 43 71  1  0  0  0  0
 44 41  2  0  0  0  0
 45  3  1  0  0  0  0
 47  6  1  0  0  0  0
 48  6  1  0  0  0  0
 49  7  1  0  0  0  0
 50  8  1  0  0  0  0
 51 13  1  0  0  0  0
 54 21  1  0  0  0  0
 55 24  1  0  0  0  0
 56 26  1  0  0  0  0
 62 32  1  0  0  0  0
 68 39  1  0  0  0  0
 69 39  1  0  0  0  0
 72 43  1  0  0  0  0
 73 43  1  0  0  0  0
M  END
