-1 1
 OpenBabel05192410563D

 74 79  0  0  1  0  0  0  0  0999 V2000
   -2.2108   -3.3602    3.1833 O   0  0  0  0  0  0  0  0  0  0  0  0
   -1.5214   -3.2998    2.1268 C   0  0  0  0  0  0  0  0  0  0  0  0
   -2.3154   -3.0837    0.9156 N   0  0  0  0  0  0  0  0  0  0  0  0
   -3.7363   -3.4330    1.0412 C   0  0  0  0  0  0  0  0  0  0  0  0
   -4.3474   -3.0504   -0.3096 C   0  0  0  0  0  0  0  0  0  0  0  0
   -3.3989   -1.9854   -0.7874 C   0  0  0  0  0  0  0  0  0  0  0  0
   -2.1895   -2.1137   -0.0580 C   0  0  0  0  0  0  0  0  0  0  0  0
   -1.1143   -1.2767   -0.3795 C   0  0  0  0  0  0  0  0  0  0  0  0
   -1.2988   -0.3065   -1.3707 C   0  0  0  0  0  0  0  0  0  0  0  0
   -0.2141    0.5876   -1.7262 N   0  0  0  0  0  0  0  0  0  0  0  0
    0.5983    0.0670   -2.7722 C   0  0  0  0  0  0  0  0  0  0  0  0
    0.4689   -1.0844   -3.1285 O   0  0  0  0  0  0  0  0  0  0  0  0
    1.5375    1.0010   -3.3796 C   0  0  0  0  0  0  0  0  0  0  0  0
    1.5906    2.2886   -2.9888 C   0  0  0  0  0  0  0  0  0  0  0  0
   -0.1123    1.8916   -1.2656 C   0  0  0  0  0  0  0  0  0  0  0  0
    0.7656    2.7678   -1.9166 C   0  0  0  0  0  0  0  0  0  0  0  0
    0.8398    4.1263   -1.4942 C   0  0  0  0  0  0  0  0  0  0  0  0
    0.1909    4.6371   -0.4921 N   0  0  0  0  0  0  0  0  0  0  0  0
   -0.5931    3.7855    0.2374 C   0  0  0  0  0  0  0  0  0  0  0  0
   -0.7936    2.4130   -0.0961 C   0  0  0  0  0  0  0  0  0  0  0  0
   -1.5402    1.6309    0.8081 C   0  0  0  0  0  0  0  0  0  0  0  0
   -2.0181    2.1044    2.0178 C   0  0  0  0  0  0  0  0  0  0  0  0
   -2.6024    1.1082    2.9262 C   0  0  0  0  0  0  0  0  0  0  0  0
   -2.1979   -0.2222    2.9552 C   0  0  0  0  0  0  0  0  0  0  0  0
   -3.0025   -0.8638    3.8109 N   0  0  0  0  0  0  0  0  0  0  0  0
   -2.9335   -1.8962    3.9109 H   0  0  0  0  0  0  0  0  0  0  0  0
   -3.9161   -0.0660    4.3630 N   0  0  0  0  0  0  0  0  0  0  0  0
   -3.6801    1.1369    3.8477 C   0  0  0  0  0  0  0  0  0  0  0  0
   -1.8571    3.4813    2.3060 C   0  0  0  0  0  0  0  0  0  0  0  0
   -1.1790    4.2935    1.4253 C   0  0  0  0  0  0  0  0  0  0  0  0
   -2.4920   -0.1598   -2.0622 C   0  0  0  0  0  0  0  0  0  0  0  0
   -3.5539   -1.0247   -1.7635 C   0  0  0  0  0  0  0  0  0  0  0  0
   -0.1548   -3.4803    2.0542 C   0  0  0  0  0  3  0  0  0  0  0  0
    0.7422   -3.5548    0.8737 C   0  0  0  0  0  0  0  0  0  0  0  0
    2.0096   -2.2007    1.0439 S   0  0  0  0  0  0  0  0  0  0  0  0
    2.7317   -2.0101   -0.6214 C   0  0  0  0  0  0  0  0  0  0  0  0
    3.5480   -0.7163   -0.6716 C   0  0  2  0  0  0  0  0  0  0  0  0
    4.4371   -0.8127   -0.0208 H   0  0  0  0  0  0  0  0  0  0  0  0
    2.7551    0.3953   -0.1517 N   0  0  0  0  0  0  0  0  0  0  0  0
    3.2968    1.4765    0.4592 C   0  0  0  0  0  0  0  0  0  0  0  0
    2.3673    2.2999    1.3172 C   0  0  0  0  0  0  0  0  0  0  0  0
    4.4786    1.7831    0.3261 O   0  0  0  0  0  0  0  0  0  0  0  0
    4.0832   -0.4670   -2.0998 C   0  0  0  0  0  0  0  0  0  0  0  0
    4.8012    0.6738   -2.2221 N   0  0  0  0  0  0  0  0  0  0  0  0
    5.3408    1.1075   -3.4809 C   0  0  0  0  0  0  0  0  0  0  0  0
    3.8934   -1.2544   -3.0091 O   0  0  0  0  0  0  0  0  0  0  0  0
   -4.1891   -2.8523    1.8616 H   0  0  0  0  0  0  0  0  0  0  0  0
   -3.8509   -4.4956    1.2945 H   0  0  0  0  0  0  0  0  0  0  0  0
   -5.3888   -2.7085   -0.2237 H   0  0  0  0  0  0  0  0  0  0  0  0
   -4.3301   -3.9033   -1.0113 H   0  0  0  0  0  0  0  0  0  0  0  0
   -0.1751   -1.3131    0.1726 H   0  0  0  0  0  0  0  0  0  0  0  0
    2.1700    0.5804   -4.1608 H   0  0  0  0  0  0  0  0  0  0  0  0
    2.2828    2.9893   -3.4645 H   0  0  0  0  0  0  0  0  0  0  0  0
    1.5021    4.7967   -2.0589 H   0  0  0  0  0  0  0  0  0  0  0  0
   -1.7270    0.5914    0.5876 H   0  0  0  0  0  0  0  0  0  0  0  0
   -1.3867   -0.7457    2.4518 H   0  0  0  0  0  0  0  0  0  0  0  0
   -4.3077    1.9827    4.1299 H   0  0  0  0  0  0  0  0  0  0  0  0
   -2.2415    3.8875    3.2447 H   0  0  0  0  0  0  0  0  0  0  0  0
   -1.0161    5.3519    1.6361 H   0  0  0  0  0  0  0  0  0  0  0  0
   -2.5864    0.6124   -2.8270 H   0  0  0  0  0  0  0  0  0  0  0  0
   -4.5018   -0.9350   -2.3002 H   0  0  0  0  0  0  0  0  0  0  0  0
    0.3083   -3.6437    3.0316 H   0  0  0  0  0  0  0  0  0  0  0  0
    0.2212   -3.4223   -0.0856 H   0  0  0  0  0  0  0  0  0  0  0  0
    1.3110   -4.4973    0.8181 H   0  0  0  0  0  0  0  0  0  0  0  0
    1.9291   -1.9807   -1.3754 H   0  0  0  0  0  0  0  0  0  0  0  0
    3.3904   -2.8494   -0.8791 H   0  0  0  0  0  0  0  0  0  0  0  0
    1.8098    0.1421    0.1208 H   0  0  0  0  0  0  0  0  0  0  0  0
    2.8676    2.4763    2.2786 H   0  0  0  0  0  0  0  0  0  0  0  0
    1.3937    1.8258    1.4959 H   0  0  0  0  0  0  0  0  0  0  0  0
    2.2074    3.2793    0.8436 H   0  0  0  0  0  0  0  0  0  0  0  0
    4.9144    1.2441   -1.3790 H   0  0  0  0  0  0  0  0  0  0  0  0
    6.4104    1.3547   -3.3915 H   0  0  0  0  0  0  0  0  0  0  0  0
    4.8149    1.9974   -3.8697 H   0  0  0  0  0  0  0  0  0  0  0  0
    5.2243    0.2911   -4.2058 H   0  0  0  0  0  0  0  0  0  0  0  0
  2  1  2  0  0  0  0
  3  4  1  0  0  0  0
  3  2  1  0  0  0  0
  4 48  1  0  0  0  0
  4 47  1  0  0  0  0
  5 49  1  0  0  0  0
  5  4  1  0  0  0  0
  6  5  1  0  0  0  0
  6  7  1  0  0  0  0
  7  3  1  0  0  0  0
  8  7  2  0  0  0  0
  8 51  1  0  0  0  0
  9  8  1  0  0  0  0
 10  9  1  0  0  0  0
 10 15  1  0  0  0  0
 11 10  1  0  0  0  0
 12 11  2  0  0  0  0
 13 14  2  0  0  0  0
 13 11  1  0  0  0  0
 14 16  1  0  0  0  0
 15 20  1  0  0  0  0
 16 17  1  0  0  0  0
 16 15  2  0  0  0  0
 17 18  2  0  0  0  0
 18 19  1  0  0  0  0
 19 30  1  0  0  0  0
 20 19  2  0  0  0  0
 20 21  1  0  0  0  0
 21 22  2  0  0  0  0
 22 29  1  0  0  0  0
 22 23  1  0  0  0  0
 23 24  2  0  0  0  0
 23 28  1  0  0  0  0
 24 25  1  0  0  0  0
 25 26  1  0  0  0  0
 25 27  1  0  0  0  0
 28 57  1  0  0  0  0
 28 27  2  0  0  0  0
 29 58  1  0  0  0  0
 30 59  1  0  0  0  0
 30 29  2  0  0  0  0
 31 32  1  0  0  0  0
 31  9  2  0  0  0  0
 32  6  2  0  0  0  0
 33  2  1  0  0  0  0
 33 62  1  0  0  0  0
 34 35  1  0  0  0  0
 34 33  1  0  0  0  0
 36 35  1  0  0  0  0
 37 36  1  0  0  0  0
 37 39  1  0  0  0  0
 37 38  1  1  0  0  0
 39 67  1  0  0  0  0
 39 40  1  0  0  0  0
 40 41  1  0  0  0  0
 41 69  1  0  0  0  0
 41 68  1  0  0  0  0
 42 40  2  0  0  0  0
 43 37  1  0  0  0  0
 44 43  1  0  0  0  0
 44 71  1  0  0  0  0
 45 72  1  0  0  0  0
 45 44  1  0  0  0  0
 46 43  2  0  0  0  0
 50  5  1  0  0  0  0
 52 13  1  0  0  0  0
 53 14  1  0  0  0  0
 54 17  1  0  0  0  0
 55 21  1  0  0  0  0
 56 24  1  0  0  0  0
 60 31  1  0  0  0  0
 61 32  1  0  0  0  0
 63 34  1  0  0  0  0
 64 34  1  0  0  0  0
 65 36  1  0  0  0  0
 66 36  1  0  0  0  0
 70 41  1  0  0  0  0
 73 45  1  0  0  0  0
 74 45  1  0  0  0  0
M  END
