74
-1 1
O         6.454588    8.706919   -1.463751
C         7.035982    8.806996   -2.558399
N         6.209980    9.199228   -3.649331
C         4.763188    9.100547   -3.404131
C         4.130897    9.451634   -4.750792
C         5.181835   10.341784   -5.353291
C         6.412405   10.094779   -4.704459
C         7.554411   10.792418   -5.100234
C         7.412115   11.769684   -6.091620
N         8.536994   12.597664   -6.470425
C         9.306486   12.040430   -7.527022
O         9.105133   10.901182   -7.890058
C        10.284065   12.930157   -8.140371
C        10.379153   14.222109   -7.772420
C         8.686815   13.902900   -6.028117
C         9.569332   14.747796   -6.709836
C         9.660621   16.115758   -6.327596
N         9.009576   16.668205   -5.347599
C         8.229659   15.845306   -4.583441
C         8.038667   14.459497   -4.857610
C         7.331679   13.702982   -3.900585
C         6.849204   14.226199   -2.715703
C         6.258563   13.272394   -1.763429
C         6.654700   11.945903   -1.648075
N         5.818762   11.361137   -0.774934
H         5.824300   10.350815   -0.596415
N         4.894686   12.194512   -0.297604
C         5.155942   13.361448   -0.876057
C         6.987043   15.617379   -2.491930
C         7.648885   16.397781   -3.412352
C         6.203759   12.022930   -6.726029
C         5.074825   11.287241   -6.353723
C         8.401845    8.420181   -2.712247
C         9.210103    8.356991   -3.838696
S        10.725239   10.185174   -3.709547
C        11.627099   10.476458   -5.272888
C        12.407140   11.799547   -5.254797
H        13.285338   11.694377   -4.589669
N        11.557951   12.851194   -4.701170
C        12.029145   13.957076   -4.083256
C        11.065004   14.675875   -3.169217
O        13.171785   14.383096   -4.245074
C        12.967426   12.118124   -6.658752
N        13.578234   13.321968   -6.759621
C        14.163012   13.783602   -7.987224
O        12.889033   11.322098   -7.580259
H         4.460958    9.827214   -2.630323
H         4.507144    8.100234   -3.033701
H         3.151208    9.938085   -4.644631
H         3.996760    8.550135   -5.374393
H         8.524223   10.674947   -4.604919
H        10.912141   12.477437   -8.905927
H        11.095489   14.889291   -8.259589
H        10.330584   16.760881   -6.911910
H         7.179932   12.647840   -4.062713
H         7.475265   11.398150   -2.108888
H         4.528922   14.227100   -0.662585
H         6.600647   16.060917   -1.570988
H         7.803300   17.465582   -3.247619
H         6.146470   12.799080   -7.490680
H         4.111100   11.474284   -6.833549
H         8.833417    8.118112   -1.754961
H         8.805157    8.535563   -4.838075
H        10.067170    7.685644   -3.816537
H        10.926240   10.477372   -6.120679
H        12.345874    9.670438   -5.470364
H        10.689117   12.463088   -4.324822
H        11.561882   14.812646   -2.199076
H        10.116678   14.143887   -3.019943
H        10.858820   15.674106   -3.580733
H        13.638333   13.883637   -5.902949
H        15.249858   13.943086   -7.887420
H        13.710882   14.733626   -8.320460
H        13.991945   13.019362   -8.756873
