74
-1 1
O        -2.210815   -3.360173    3.183291
C        -1.521413   -3.299817    2.126793
N        -2.315420   -3.083655    0.915576
C        -3.736282   -3.433043    1.041163
C        -4.347412   -3.050420   -0.309559
C        -3.398898   -1.985351   -0.787369
C        -2.189524   -2.113714   -0.058048
C        -1.114313   -1.276734   -0.379485
C        -1.298845   -0.306454   -1.370743
N        -0.214097    0.587579   -1.726201
C         0.598347    0.067013   -2.772198
O         0.468916   -1.084392   -3.128488
C         1.537460    1.000983   -3.379589
C         1.590583    2.288578   -2.988773
C        -0.112324    1.891649   -1.265635
C         0.765593    2.767821   -1.916615
C         0.839820    4.126330   -1.494185
N         0.190883    4.637144   -0.492063
C        -0.593116    3.785480    0.237375
C        -0.793582    2.412968   -0.096052
C        -1.540222    1.630874    0.808054
C        -2.018067    2.104375    2.017795
C        -2.602377    1.108172    2.926169
C        -2.197879   -0.222174    2.955205
N        -3.002491   -0.863810    3.810873
H        -2.933500   -1.896178    3.910921
N        -3.916051   -0.065955    4.363007
C        -3.680150    1.136932    3.847725
C        -1.857058    3.481250    2.306006
C        -1.179012    4.293524    1.425287
C        -2.491958   -0.159806   -2.062246
C        -3.553871   -1.024652   -1.763525
C        -0.154795   -3.480349    2.054197
C         0.742158   -3.554787    0.873687
S         2.009649   -2.200670    1.043888
C         2.731674   -2.010145   -0.621373
C         3.547971   -0.716308   -0.671565
H         4.437058   -0.812673   -0.020765
N         2.755147    0.395338   -0.151735
C         3.296840    1.476498    0.459213
C         2.367325    2.299863    1.317159
O         4.478616    1.783091    0.326098
C         4.083210   -0.467026   -2.099829
N         4.801244    0.673830   -2.222064
C         5.340806    1.107507   -3.480946
O         3.893385   -1.254436   -3.009150
H        -4.189103   -2.852269    1.861609
H        -3.850912   -4.495561    1.294488
H        -5.388846   -2.708467   -0.223711
H        -4.330102   -3.903292   -1.011301
H        -0.175082   -1.313103    0.172550
H         2.169958    0.580360   -4.160764
H         2.282755    2.989320   -3.464510
H         1.502105    4.796730   -2.058885
H        -1.727000    0.591372    0.587595
H        -1.386735   -0.745716    2.451780
H        -4.307724    1.982665    4.129872
H        -2.241549    3.887519    3.244750
H        -1.016053    5.351933    1.636150
H        -2.586400    0.612410   -2.826971
H        -4.501837   -0.934963   -2.300214
H         0.308269   -3.643746    3.031637
H         0.221166   -3.422260   -0.085582
H         1.310959   -4.497314    0.818086
H         1.929121   -1.980671   -1.375412
H         3.390440   -2.849368   -0.879077
H         1.809753    0.142109    0.120806
H         2.867642    2.476279    2.278605
H         1.393743    1.825796    1.495868
H         2.207439    3.279251    0.843609
H         4.914435    1.244086   -1.379045
H         6.410444    1.354679   -3.391494
H         4.814945    1.997428   -3.869726
H         5.224290    0.291119   -4.205766
