70
-1 1
O         9.068687   12.952355   -2.972571
C         7.853241   12.898002   -3.133589
N         7.371408   11.814959   -3.995794
C         6.727208   11.905509   -5.192497
C         6.473919   10.726136   -5.932322
C         5.810647   10.782586   -7.147865
N         5.479803    9.529437   -7.788658
C         6.304515    9.196366   -8.897423
O         7.067264   10.009094   -9.371584
C         6.190372    7.823148   -9.377929
C         5.355914    6.941719   -8.792686
C         4.540829    8.667012   -7.250099
C         4.503996    7.343079   -7.711839
C         3.653212    6.399504   -7.073009
N         2.870743    6.661870   -6.072788
C         2.803109    7.964736   -5.659783
C         3.567761    9.026974   -6.231848
C         3.293113   10.343976   -5.786582
C         2.368102   10.614690   -4.795277
C         2.180875   11.999442   -4.339220
C         1.902596   12.430133   -3.053250
N         1.922206   13.778971   -3.089997
H         1.841570   14.405209   -2.300905
N         2.198393   14.272647   -4.298065
C         2.361406   13.207862   -5.064851
C         1.680544    9.538167   -4.185866
C         1.893529    8.252718   -4.612814
C         5.414954   11.991072   -7.717672
C         5.653534   13.154754   -6.985865
C         6.273085   13.126280   -5.742022
C         6.870189   13.725770   -2.543713
C         5.468426   13.449718   -2.471245
S         4.876475   12.025435   -1.067488
C         4.846654   10.649283   -2.262719
C         4.605698    9.245184   -1.700074
H         5.297294    9.090767   -0.849202
N         4.835918    8.233027   -2.711321
C         6.000890    8.015298   -3.360854
C         5.975202    6.868327   -4.353603
O         7.012198    8.682564   -3.199411
C         3.180510    8.974001   -1.179354
N         2.603952    9.978647   -0.486726
C         1.291860    9.860291    0.093303
O         2.629796    7.899599   -1.384086
H         7.860729   10.941214   -3.828252
H         6.775311    9.764615   -5.510716
H         6.847116    7.560189  -10.207433
H         5.305673    5.904410   -9.136365
H         3.681257    5.362040   -7.433611
H         3.826368   11.183878   -6.215550
H         1.772890   11.877071   -2.127516
H         2.606843   13.324127   -6.119688
H         0.971851    9.732280   -3.377915
H         1.366376    7.410159   -4.164667
H         4.914334   12.008912   -8.685609
H         5.339340   14.119100   -7.393399
H         6.433009   14.044616   -5.175085
H         7.280628   14.487641   -1.875409
H         4.992867   12.977929   -3.341393
H         4.855217   14.289729   -2.125620
H         5.829086   10.636140   -2.743524
H         4.099248   10.853364   -3.038924
H         4.061598    7.583555   -2.818868
H         6.832707    6.212489   -4.150518
H         6.110905    7.280397   -5.364444
H         5.044216    6.286024   -4.337500
H         3.117232   10.867774   -0.419502
H         0.964712    8.816814    0.002645
H         0.555172   10.499657   -0.424076
H         1.304789   10.143863    1.157063
