70
-1 1
O         4.449673    2.653711    1.549205
C         3.231138    2.587815    1.410354
N         2.745380    1.496880    0.554244
C         2.103695    1.585440   -0.642940
C         1.853144    0.406161   -1.384620
C         1.188850    0.462608   -2.599538
N         0.859121   -0.790777   -3.240771
C         1.685152   -1.123660   -4.348659
O         2.448915   -0.311121   -4.821334
C         1.570524   -2.496421   -4.830479
C         0.734480   -3.377596   -4.247184
C        -0.080896   -1.652869   -2.703953
C        -0.118430   -2.976420   -3.167030
C        -0.970759   -3.919923   -2.530288
N        -1.754596   -3.658055   -1.530963
C        -1.821737   -2.355527   -1.116833
C        -1.054989   -1.293393   -1.686240
C        -1.329186    0.023283   -1.239671
C        -2.256282    0.293755   -0.250218
C        -2.444021    1.678507    0.205810
C        -2.728236    2.109791    1.490280
N        -2.708224    3.458771    1.453142
H        -2.794222    4.085907    2.240941
N        -2.426443    3.951736    0.246171
C        -2.259977    2.886667   -0.519400
C        -2.946214   -0.782739    0.356512
C        -2.733313   -2.067894   -0.071439
C         0.789671    1.670697   -3.167912
C         1.024953    2.834063   -2.434185
C         1.644315    2.805626   -1.190382
C         2.247384    3.401332    2.011012
C         0.841074    3.114035    2.091284
S         0.269368    1.701570    3.463467
C         0.227035    0.324592    2.269959
C        -0.017047   -1.076743    2.837211
H         0.675839   -1.231358    3.687066
N         0.209326   -2.091105    1.827713
C         1.376007   -2.313975    1.182218
C         1.349283   -3.460530    0.189289
O         2.388638   -1.650148    1.347807
C        -1.441731   -1.342507    3.361654
N        -2.015495   -0.333414    4.050925
C        -3.326319   -0.447968    4.634928
O        -1.994880   -2.416539    3.163421
H         3.240822    0.626342    0.720318
H         2.157072   -0.555348   -0.964638
H         2.228093   -2.759233   -5.659378
H         0.683681   -4.414537   -4.591896
H        -0.942867   -4.957073   -2.891803
H        -0.794120    0.863082   -1.666570
H        -2.863240    1.556944    2.415366
H        -2.009002    3.002386   -1.572977
H        -3.656966   -0.588919    1.162751
H        -3.262511   -2.910576    0.374102
H         0.288510    1.688381   -4.135588
H         0.707729    3.798073   -2.840269
H         1.801824    3.723131   -0.621160
H         2.653580    4.166547    2.678189
H         0.365390    2.664081    1.208710
H         0.232160    3.958213    2.436487
H         1.207328    0.308144    1.785041
H        -0.523716    0.532646    1.498332
H        -0.566840   -2.738071    1.719437
H         2.205674   -4.117695    0.392638
H         1.486145   -3.048096   -0.821250
H         0.417333   -4.041308    0.204574
H        -1.503063    0.555863    4.112178
H        -3.652291   -1.492604    4.554236
H        -4.065189    0.185555    4.113463
H        -3.311119   -0.154868    5.696011
