-1 1
 OpenBabel05232413493D

 82 86  0  0  1  0  0  0  0  0999 V2000
   -1.8688   -3.8703    1.5488 O   0  0  0  0  0  0  0  0  0  0  0  0
   -1.7449   -2.7335    1.9693 C   0  0  0  0  0  0  0  0  0  0  0  0
   -0.4971   -2.3773    2.4771 N   0  0  0  0  0  0  0  0  0  0  0  0
    0.2001   -1.1791    2.6948 C   0  0  0  0  0  0  0  0  0  0  0  0
    1.3416   -1.2561    3.5247 C   0  0  0  0  0  0  0  0  0  0  0  0
    1.7234   -2.5568    4.1787 C   0  0  0  0  0  0  0  0  0  0  0  0
    2.1192   -0.1115    3.7081 C   0  0  0  0  0  0  0  0  0  0  0  0
    1.8019    1.0933    3.0948 C   0  0  0  0  0  0  0  0  0  0  0  0
    0.6786    1.1512    2.2752 C   0  0  0  0  0  0  0  0  0  0  0  0
    0.3554    2.3699    1.5881 N   0  0  0  0  0  0  0  0  0  0  0  0
   -0.0339    3.4474    2.4350 C   0  0  0  0  0  0  0  0  0  0  0  0
    0.1814    3.4008    3.6283 O   0  0  0  0  0  0  0  0  0  0  0  0
   -0.7033    4.5601    1.7780 C   0  0  0  0  0  0  0  0  0  0  0  0
   -1.0013    4.5243    0.4671 C   0  0  0  0  0  0  0  0  0  0  0  0
    0.2001    2.4043    0.2140 C   0  0  0  0  0  0  0  0  0  0  0  0
   -0.5392    3.4430   -0.3557 C   0  0  0  0  0  0  0  0  0  0  0  0
   -0.8696    3.3796   -1.7329 C   0  0  0  0  0  0  0  0  0  0  0  0
   -0.4883    2.4400   -2.5500 N   0  0  0  0  0  0  0  0  0  0  0  0
    0.3647    1.4945   -2.0567 C   0  0  0  0  0  0  0  0  0  0  0  0
    0.7798    1.4371   -0.6956 C   0  0  0  0  0  0  0  0  0  0  0  0
    1.7659    0.4781   -0.3482 C   0  0  0  0  0  0  0  0  0  0  0  0
    2.2546   -0.4461   -1.2518 C   0  0  0  0  0  0  0  0  0  0  0  0
    3.2697   -1.4441   -0.8264 C   0  0  0  0  0  0  0  0  0  0  0  0
    4.2813   -1.8579   -1.6987 C   0  0  0  0  0  0  0  0  0  0  0  0
    5.2376   -2.7904   -1.3045 C   0  0  0  0  0  0  0  0  0  0  0  0
    6.2097   -3.1434   -2.1939 O   0  0  0  0  0  0  0  0  0  0  0  0
    7.3074   -3.8049   -1.6142 C   0  0  0  0  0  0  0  0  0  0  0  0
    6.8270   -4.8640   -0.6399 C   0  0  0  0  0  0  0  0  0  0  0  0
    6.0980   -4.2666    0.4047 O   0  0  0  0  0  0  0  0  0  0  0  0
    5.1909   -3.3383   -0.0130 C   0  0  0  0  0  0  0  0  0  0  0  0
    4.1918   -2.9235    0.8654 C   0  0  0  0  0  0  0  0  0  0  0  0
    3.2431   -1.9905    0.4670 C   0  0  0  0  0  0  0  0  0  0  0  0
    1.7660   -0.4221   -2.5829 C   0  0  0  0  0  0  0  0  0  0  0  0
    0.8611    0.5318   -2.9709 C   0  0  0  0  0  0  0  0  0  0  0  0
   -0.1354    0.0374    2.0870 C   0  0  0  0  0  0  0  0  0  0  0  0
   -2.9081   -1.8227    2.0263 C   0  0  0  0  0  0  0  0  0  0  0  0
   -3.1025   -0.8092    2.8778 C   0  0  0  0  0  0  0  0  0  0  0  0
   -3.2659    1.9300    1.1438 S   0  0  0  0  0  1  0  0  0  0  0  0
   -3.0051    0.8610   -0.3049 C   0  0  0  0  0  0  0  0  0  0  0  0
   -3.8227    1.2739   -1.5470 C   0  0  2  0  0  0  0  0  0  0  0  0
   -3.4051    2.2117   -1.9568 H   0  0  0  0  0  0  0  0  0  0  0  0
   -5.1902    1.4850   -1.1647 N   0  0  0  0  0  0  0  0  0  0  0  0
   -6.1073    1.9598   -2.0337 C   0  0  0  0  0  0  0  0  0  0  0  0
   -7.4834    2.2086   -1.4383 C   0  0  0  0  0  0  0  0  0  0  0  0
   -5.8792    2.1413   -3.2196 O   0  0  0  0  0  0  0  0  0  0  0  0
   -3.7017    0.1789   -2.6110 C   0  0  0  0  0  0  0  0  0  0  0  0
   -2.6538    0.3630   -3.4623 N   0  0  0  0  0  0  0  0  0  0  0  0
   -2.3001   -0.6112   -4.4563 C   0  0  0  0  0  0  0  0  0  0  0  0
   -4.4232   -0.7995   -2.6411 O   0  0  0  0  0  0  0  0  0  0  0  0
    0.0851   -3.2082    2.4869 H   0  0  0  0  0  0  0  0  0  0  0  0
    0.8792   -2.9868    4.7406 H   0  0  0  0  0  0  0  0  0  0  0  0
    2.5638   -2.4160    4.8718 H   0  0  0  0  0  0  0  0  0  0  0  0
    2.0362   -3.3145    3.4375 H   0  0  0  0  0  0  0  0  0  0  0  0
    3.0008   -0.1704    4.3515 H   0  0  0  0  0  0  0  0  0  0  0  0
    2.4164    1.9801    3.2417 H   0  0  0  0  0  0  0  0  0  0  0  0
   -1.0310    5.3621    2.4387 H   0  0  0  0  0  0  0  0  0  0  0  0
   -1.5903    5.3174    0.0010 H   0  0  0  0  0  0  0  0  0  0  0  0
   -1.5329    4.1551   -2.1356 H   0  0  0  0  0  0  0  0  0  0  0  0
    2.1835    0.4812    0.6541 H   0  0  0  0  0  0  0  0  0  0  0  0
    4.3683   -1.4417   -2.7041 H   0  0  0  0  0  0  0  0  0  0  0  0
    7.9535   -3.0812   -1.0829 H   0  0  0  0  0  0  0  0  0  0  0  0
    7.8852   -4.2551   -2.4332 H   0  0  0  0  0  0  0  0  0  0  0  0
    7.6742   -5.3943   -0.1837 H   0  0  0  0  0  0  0  0  0  0  0  0
    6.1967   -5.5989   -1.1746 H   0  0  0  0  0  0  0  0  0  0  0  0
    4.1685   -3.3633    1.8642 H   0  0  0  0  0  0  0  0  0  0  0  0
    2.4559   -1.6970    1.1629 H   0  0  0  0  0  0  0  0  0  0  0  0
    2.1102   -1.1699   -3.3008 H   0  0  0  0  0  0  0  0  0  0  0  0
    0.4939    0.5849   -3.9969 H   0  0  0  0  0  0  0  0  0  0  0  0
   -1.0179    0.1311    1.4532 H   0  0  0  0  0  0  0  0  0  0  0  0
   -3.7037   -2.1336    1.3446 H   0  0  0  0  0  0  0  0  0  0  0  0
   -2.3431   -0.4850    3.5936 H   0  0  0  0  0  0  0  0  0  0  0  0
   -4.0371   -0.2491    2.8736 H   0  0  0  0  0  0  0  0  0  0  0  0
   -3.2662   -0.1844   -0.0630 H   0  0  0  0  0  0  0  0  0  0  0  0
   -1.9461    0.8472   -0.6129 H   0  0  0  0  0  0  0  0  0  0  0  0
   -5.3055    1.6081   -0.1562 H   0  0  0  0  0  0  0  0  0  0  0  0
   -7.4497    2.4126   -0.3585 H   0  0  0  0  0  0  0  0  0  0  0  0
   -8.1043    1.3149   -1.6033 H   0  0  0  0  0  0  0  0  0  0  0  0
   -7.9504    3.0509   -1.9647 H   0  0  0  0  0  0  0  0  0  0  0  0
   -2.0828    1.1989   -3.3657 H   0  0  0  0  0  0  0  0  0  0  0  0
   -3.1095   -1.3517   -4.5015 H   0  0  0  0  0  0  0  0  0  0  0  0
   -1.3625   -1.1399   -4.2081 H   0  0  0  0  0  0  0  0  0  0  0  0
   -2.1861   -0.1462   -5.4492 H   0  0  0  0  0  0  0  0  0  0  0  0
  1  2  2  0  0  0  0
  2 36  1  0  0  0  0
  2  3  1  0  0  0  0
  3 50  1  0  0  0  0
  3  4  1  0  0  0  0
  4  5  1  0  0  0  0
  5  7  2  0  0  0  0
  5  6  1  0  0  0  0
  6 51  1  0  0  0  0
  6 52  1  0  0  0  0
  7 54  1  0  0  0  0
  8 55  1  0  0  0  0
  8  7  1  0  0  0  0
  9  8  2  0  0  0  0
 10  9  1  0  0  0  0
 10 11  1  0  0  0  0
 11 12  2  0  0  0  0
 13 11  1  0  0  0  0
 13 56  1  0  0  0  0
 14 13  2  0  0  0  0
 15 10  1  0  0  0  0
 16 15  1  0  0  0  0
 16 14  1  0  0  0  0
 17 16  2  0  0  0  0
 18 19  2  0  0  0  0
 18 17  1  0  0  0  0
 19 20  1  0  0  0  0
 20 21  1  0  0  0  0
 20 15  2  0  0  0  0
 21 59  1  0  0  0  0
 22 23  1  0  0  0  0
 22 21  2  0  0  0  0
 23 32  1  0  0  0  0
 24 25  1  0  0  0  0
 24 23  2  0  0  0  0
 25 30  2  0  0  0  0
 26 27  1  0  0  0  0
 26 25  1  0  0  0  0
 27 61  1  0  0  0  0
 27 28  1  0  0  0  0
 28 63  1  0  0  0  0
 28 29  1  0  0  0  0
 30 29  1  0  0  0  0
 30 31  1  0  0  0  0
 31 65  1  0  0  0  0
 32 31  2  0  0  0  0
 32 66  1  0  0  0  0
 33 22  1  0  0  0  0
 34 33  2  0  0  0  0
 34 19  1  0  0  0  0
 35  9  1  0  0  0  0
 35  4  2  0  0  0  0
 36 37  2  0  0  0  0
 37 71  1  0  0  0  0
 39 73  1  0  0  0  0
 39 38  1  0  0  0  0
 40 41  1  6  0  0  0
 40 42  1  0  0  0  0
 40 39  1  0  0  0  0
 42 75  1  0  0  0  0
 43 44  1  0  0  0  0
 43 42  1  0  0  0  0
 44 76  1  0  0  0  0
 45 43  2  0  0  0  0
 46 40  1  0  0  0  0
 47 79  1  0  0  0  0
 47 46  1  0  0  0  0
 48 81  1  0  0  0  0
 48 47  1  0  0  0  0
 49 46  2  0  0  0  0
 53  6  1  0  0  0  0
 57 14  1  0  0  0  0
 58 17  1  0  0  0  0
 60 24  1  0  0  0  0
 62 27  1  0  0  0  0
 64 28  1  0  0  0  0
 67 33  1  0  0  0  0
 68 34  1  0  0  0  0
 69 35  1  0  0  0  0
 70 36  1  0  0  0  0
 72 37  1  0  0  0  0
 74 39  1  0  0  0  0
 77 44  1  0  0  0  0
 78 44  1  0  0  0  0
 80 48  1  0  0  0  0
 82 48  1  0  0  0  0
M  END
