-1 1
 OpenBabel05232414493D

 82 87  0  0  1  0  0  0  0  0999 V2000
    3.6745    2.3307   10.9225 O   0  0  0  0  0  0  0  0  0  0  0  0
    3.6837    3.4753   11.3755 C   0  0  0  0  0  0  0  0  0  0  0  0
    4.8721    3.7674   12.1495 N   0  0  0  0  0  0  0  0  0  0  0  0
    5.7179    4.8495   12.2378 C   0  0  0  0  0  0  0  0  0  0  0  0
    6.9039    4.7288   13.0130 C   0  0  0  0  0  0  0  0  0  0  0  0
    7.2229    3.4266   13.6943 C   0  0  0  0  0  0  0  0  0  0  0  0
    7.7567    5.8263   13.1267 C   0  0  0  0  0  0  0  0  0  0  0  0
    7.4913    7.0446   12.5055 C   0  0  0  0  0  0  0  0  0  0  0  0
    6.3427    7.1372   11.7280 C   0  0  0  0  0  0  0  0  0  0  0  0
    6.0095    8.3597   11.0370 N   0  0  0  0  0  0  0  0  0  0  0  0
    5.5728    9.4125   11.8900 C   0  0  0  0  0  0  0  0  0  0  0  0
    5.7805    9.3702   13.0833 O   0  0  0  0  0  0  0  0  0  0  0  0
    4.8513   10.5001   11.2397 C   0  0  0  0  0  0  0  0  0  0  0  0
    4.5810   10.4765    9.9220 C   0  0  0  0  0  0  0  0  0  0  0  0
    5.8425    8.3891    9.6672 C   0  0  0  0  0  0  0  0  0  0  0  0
    5.0792    9.4147    9.0964 C   0  0  0  0  0  0  0  0  0  0  0  0
    4.7513    9.3515    7.7185 C   0  0  0  0  0  0  0  0  0  0  0  0
    5.1441    8.4184    6.9008 N   0  0  0  0  0  0  0  0  0  0  0  0
    6.0037    7.4766    7.3946 C   0  0  0  0  0  0  0  0  0  0  0  0
    6.4203    7.4209    8.7554 C   0  0  0  0  0  0  0  0  0  0  0  0
    7.3910    6.4497    9.1078 C   0  0  0  0  0  0  0  0  0  0  0  0
    7.8691    5.5175    8.2071 C   0  0  0  0  0  0  0  0  0  0  0  0
    8.8554    4.4974    8.6461 C   0  0  0  0  0  0  0  0  0  0  0  0
    9.8758    4.0674    7.7923 C   0  0  0  0  0  0  0  0  0  0  0  0
   10.8034    3.1133    8.2028 C   0  0  0  0  0  0  0  0  0  0  0  0
   11.7875    2.7435    7.3327 O   0  0  0  0  0  0  0  0  0  0  0  0
   12.8562    2.0538    7.9328 C   0  0  0  0  0  0  0  0  0  0  0  0
   12.3300    1.0018    8.8910 C   0  0  0  0  0  0  0  0  0  0  0  0
   11.5940    1.6113    9.9228 O   0  0  0  0  0  0  0  0  0  0  0  0
   10.7159    2.5609    9.4904 C   0  0  0  0  0  0  0  0  0  0  0  0
    9.7062    2.9916   10.3491 C   0  0  0  0  0  0  0  0  0  0  0  0
    8.7865    3.9463    9.9357 C   0  0  0  0  0  0  0  0  0  0  0  0
    7.3901    5.5494    6.8734 C   0  0  0  0  0  0  0  0  0  0  0  0
    6.4961    6.5120    6.4809 C   0  0  0  0  0  0  0  0  0  0  0  0
    5.4712    6.0665   11.5873 C   0  0  0  0  0  0  0  0  0  0  0  0
    2.5804    4.3749   11.2982 C   0  0  0  0  0  3  0  0  0  0  0  0
    2.3567    5.5955   11.9715 C   0  0  0  0  0  0  0  0  0  0  0  0
    2.4444    7.4128   10.7107 S   0  0  0  0  0  0  0  0  0  0  0  0
    2.7205    6.6195    9.1116 C   0  0  0  0  0  0  0  0  0  0  0  0
    1.8106    7.1227    7.9749 C   0  0  2  0  0  0  0  0  0  0  0  0
    2.1520    8.1191    7.6407 H   0  0  0  0  0  0  0  0  0  0  0  0
    0.4500    7.2127    8.4204 N   0  0  0  0  0  0  0  0  0  0  0  0
   -0.5156    7.7572    7.6472 C   0  0  0  0  0  0  0  0  0  0  0  0
   -1.9018    7.7712    8.2664 C   0  0  0  0  0  0  0  0  0  0  0  0
   -0.3059    8.1755    6.5207 O   0  0  0  0  0  0  0  0  0  0  0  0
    1.9258    6.1516    6.7869 C   0  0  0  0  0  0  0  0  0  0  0  0
    2.9698    6.4176    5.9573 N   0  0  0  0  0  0  0  0  0  0  0  0
    3.3020    5.5538    4.8574 C   0  0  0  0  0  0  0  0  0  0  0  0
    1.1799    5.2032    6.6468 O   0  0  0  0  0  0  0  0  0  0  0  0
    5.3181    2.8722   12.3147 H   0  0  0  0  0  0  0  0  0  0  0  0
    6.4003    3.1102   14.3571 H   0  0  0  0  0  0  0  0  0  0  0  0
    8.1382    3.5072   14.2970 H   0  0  0  0  0  0  0  0  0  0  0  0
    7.3768    2.6109   12.9650 H   0  0  0  0  0  0  0  0  0  0  0  0
    8.6608    5.7238   13.7334 H   0  0  0  0  0  0  0  0  0  0  0  0
    8.1560    7.8998   12.6202 H   0  0  0  0  0  0  0  0  0  0  0  0
    4.4927   11.2849   11.9054 H   0  0  0  0  0  0  0  0  0  0  0  0
    3.9798   11.2615    9.4562 H   0  0  0  0  0  0  0  0  0  0  0  0
    4.0814   10.1214    7.3148 H   0  0  0  0  0  0  0  0  0  0  0  0
    7.7980    6.4428   10.1141 H   0  0  0  0  0  0  0  0  0  0  0  0
    9.9924    4.4858    6.7907 H   0  0  0  0  0  0  0  0  0  0  0  0
   13.5072    2.7594    8.4824 H   0  0  0  0  0  0  0  0  0  0  0  0
   13.4416    1.5941    7.1244 H   0  0  0  0  0  0  0  0  0  0  0  0
   13.1545    0.4489    9.3619 H   0  0  0  0  0  0  0  0  0  0  0  0
   11.6940    0.2848    8.3389 H   0  0  0  0  0  0  0  0  0  0  0  0
    9.6476    2.5463   11.3438 H   0  0  0  0  0  0  0  0  0  0  0  0
    7.9887    4.2492   10.6162 H   0  0  0  0  0  0  0  0  0  0  0  0
    7.7296    4.7972    6.1579 H   0  0  0  0  0  0  0  0  0  0  0  0
    6.1319    6.5674    5.4540 H   0  0  0  0  0  0  0  0  0  0  0  0
    4.5875    6.1859   10.9668 H   0  0  0  0  0  0  0  0  0  0  0  0
    1.7536    3.9383   10.7320 H   0  0  0  0  0  0  0  0  0  0  0  0
    3.0831    5.9058   12.7295 H   0  0  0  0  0  0  0  0  0  0  0  0
    1.3276    5.7944   12.2791 H   0  0  0  0  0  0  0  0  0  0  0  0
    2.5716    5.5319    9.2688 H   0  0  0  0  0  0  0  0  0  0  0  0
    3.7620    6.7390    8.7812 H   0  0  0  0  0  0  0  0  0  0  0  0
    0.3054    7.0599    9.4145 H   0  0  0  0  0  0  0  0  0  0  0  0
   -1.8778    7.8178    9.3646 H   0  0  0  0  0  0  0  0  0  0  0  0
   -2.4256    6.8495    7.9710 H   0  0  0  0  0  0  0  0  0  0  0  0
   -2.4600    8.6276    7.8677 H   0  0  0  0  0  0  0  0  0  0  0  0
    3.5594    7.2277    6.1356 H   0  0  0  0  0  0  0  0  0  0  0  0
    2.4714    4.8492    4.7207 H   0  0  0  0  0  0  0  0  0  0  0  0
    4.2200    4.9712    5.0496 H   0  0  0  0  0  0  0  0  0  0  0  0
    3.4407    6.1302    3.9287 H   0  0  0  0  0  0  0  0  0  0  0  0
  1  2  2  0  0  0  0
  2  3  1  0  0  0  0
  3  4  1  0  0  0  0
  3 50  1  0  0  0  0
  4  5  1  0  0  0  0
  5  7  2  0  0  0  0
  5  6  1  0  0  0  0
  6 52  1  0  0  0  0
  6 51  1  0  0  0  0
  7 54  1  0  0  0  0
  8 55  1  0  0  0  0
  8  7  1  0  0  0  0
  9  8  2  0  0  0  0
 10  9  1  0  0  0  0
 10 11  1  0  0  0  0
 11 12  2  0  0  0  0
 13 11  1  0  0  0  0
 13 56  1  0  0  0  0
 14 13  2  0  0  0  0
 15 10  1  0  0  0  0
 16 15  1  0  0  0  0
 16 14  1  0  0  0  0
 17 16  2  0  0  0  0
 18 19  2  0  0  0  0
 18 17  1  0  0  0  0
 19 20  1  0  0  0  0
 20 21  1  0  0  0  0
 20 15  2  0  0  0  0
 21 59  1  0  0  0  0
 22 23  1  0  0  0  0
 22 21  2  0  0  0  0
 23 32  1  0  0  0  0
 24 25  1  0  0  0  0
 24 23  2  0  0  0  0
 25 30  2  0  0  0  0
 26 27  1  0  0  0  0
 26 25  1  0  0  0  0
 27 61  1  0  0  0  0
 27 28  1  0  0  0  0
 28 63  1  0  0  0  0
 28 29  1  0  0  0  0
 30 29  1  0  0  0  0
 30 31  1  0  0  0  0
 31 65  1  0  0  0  0
 32 31  2  0  0  0  0
 32 66  1  0  0  0  0
 33 22  1  0  0  0  0
 34 33  2  0  0  0  0
 34 19  1  0  0  0  0
 35  9  1  0  0  0  0
 35  4  2  0  0  0  0
 36  2  1  0  0  0  0
 36 37  1  0  0  0  0
 37 72  1  0  0  0  0
 37 71  1  0  0  0  0
 38 37  1  0  0  0  0
 39 73  1  0  0  0  0
 39 38  1  0  0  0  0
 40 41  1  6  0  0  0
 40 42  1  0  0  0  0
 40 39  1  0  0  0  0
 42 75  1  0  0  0  0
 43 44  1  0  0  0  0
 43 42  1  0  0  0  0
 44 76  1  0  0  0  0
 45 43  2  0  0  0  0
 46 40  1  0  0  0  0
 47 79  1  0  0  0  0
 47 46  1  0  0  0  0
 48 81  1  0  0  0  0
 48 47  1  0  0  0  0
 49 46  2  0  0  0  0
 53  6  1  0  0  0  0
 57 14  1  0  0  0  0
 58 17  1  0  0  0  0
 60 24  1  0  0  0  0
 62 27  1  0  0  0  0
 64 28  1  0  0  0  0
 67 33  1  0  0  0  0
 68 34  1  0  0  0  0
 69 35  1  0  0  0  0
 70 36  1  0  0  0  0
 74 39  1  0  0  0  0
 77 44  1  0  0  0  0
 78 44  1  0  0  0  0
 80 48  1  0  0  0  0
 82 48  1  0  0  0  0
M  END
