-1 1
 OpenBabel05192410563D

 82 87  0  0  1  0  0  0  0  0999 V2000
   -1.8194   -3.6154    1.4841 O   0  0  0  0  0  0  0  0  0  0  0  0
   -1.8650   -2.4578    1.9129 C   0  0  0  0  0  0  0  0  0  0  0  0
   -0.7119   -2.1343    2.7562 N   0  0  0  0  0  0  0  0  0  0  0  0
    0.1573   -1.0764    2.8007 C   0  0  0  0  0  0  0  0  0  0  0  0
    1.3560   -1.1915    3.5623 C   0  0  0  0  0  0  0  0  0  0  0  0
    1.6740   -2.4852    4.2596 C   0  0  0  0  0  0  0  0  0  0  0  0
    2.2158   -0.0980    3.6506 C   0  0  0  0  0  0  0  0  0  0  0  0
    1.9518    1.1161    3.0183 C   0  0  0  0  0  0  0  0  0  0  0  0
    0.7960    1.2021    2.2511 C   0  0  0  0  0  0  0  0  0  0  0  0
    0.4498    2.4202    1.5556 N   0  0  0  0  0  0  0  0  0  0  0  0
    0.0121    3.4739    2.4075 C   0  0  0  0  0  0  0  0  0  0  0  0
    0.2321    3.4420    3.5986 O   0  0  0  0  0  0  0  0  0  0  0  0
   -0.7304    4.5492    1.7592 C   0  0  0  0  0  0  0  0  0  0  0  0
   -1.0072    4.5198    0.4429 C   0  0  0  0  0  0  0  0  0  0  0  0
    0.2726    2.4426    0.1876 C   0  0  0  0  0  0  0  0  0  0  0  0
   -0.5021    3.4612   -0.3826 C   0  0  0  0  0  0  0  0  0  0  0  0
   -0.8342    3.3942   -1.7592 C   0  0  0  0  0  0  0  0  0  0  0  0
   -0.4402    2.4607   -2.5757 N   0  0  0  0  0  0  0  0  0  0  0  0
    0.4237    1.5217   -2.0827 C   0  0  0  0  0  0  0  0  0  0  0  0
    0.8475    1.4723   -0.7240 C   0  0  0  0  0  0  0  0  0  0  0  0
    1.8196    0.5028   -0.3717 C   0  0  0  0  0  0  0  0  0  0  0  0
    2.2923   -0.4340   -1.2705 C   0  0  0  0  0  0  0  0  0  0  0  0
    3.2771   -1.4544   -0.8295 C   0  0  0  0  0  0  0  0  0  0  0  0
    4.2957   -1.8893   -1.6829 C   0  0  0  0  0  0  0  0  0  0  0  0
    5.2218   -2.8436   -1.2696 C   0  0  0  0  0  0  0  0  0  0  0  0
    6.2046   -3.2186   -2.1393 O   0  0  0  0  0  0  0  0  0  0  0  0
    7.2721   -3.9086   -1.5375 C   0  0  0  0  0  0  0  0  0  0  0  0
    6.7441   -4.9558   -0.5749 C   0  0  0  0  0  0  0  0  0  0  0  0
    6.0106   -4.3406    0.4552 O   0  0  0  0  0  0  0  0  0  0  0  0
    5.1339   -3.3910    0.0202 C   0  0  0  0  0  0  0  0  0  0  0  0
    4.1257   -2.9555    0.8781 C   0  0  0  0  0  0  0  0  0  0  0  0
    3.2076   -2.0004    0.4622 C   0  0  0  0  0  0  0  0  0  0  0  0
    1.8075   -0.4074   -2.6021 C   0  0  0  0  0  0  0  0  0  0  0  0
    0.9119    0.5538   -2.9949 C   0  0  0  0  0  0  0  0  0  0  0  0
   -0.0794    0.1333    2.1289 C   0  0  0  0  0  0  0  0  0  0  0  0
   -2.9448   -1.5648    1.7568 C   0  0  0  0  0  3  0  0  0  0  0  0
   -3.2028   -0.3051    2.4117 C   0  0  0  0  0  0  0  0  0  0  0  0
   -3.1553    1.3663    1.2444 S   0  0  0  0  0  0  0  0  0  0  0  0
   -2.8702    0.6393   -0.3879 C   0  0  0  0  0  0  0  0  0  0  0  0
   -3.7821    1.1837   -1.5024 C   0  0  2  0  0  0  0  0  0  0  0  0
   -3.4425    2.1896   -1.8073 H   0  0  0  0  0  0  0  0  0  0  0  0
   -5.1444    1.2634   -1.0600 N   0  0  0  0  0  0  0  0  0  0  0  0
   -6.1017    1.8489   -1.8143 C   0  0  0  0  0  0  0  0  0  0  0  0
   -7.4989    1.8096   -1.2231 C   0  0  0  0  0  0  0  0  0  0  0  0
   -5.8720    2.3445   -2.9046 O   0  0  0  0  0  0  0  0  0  0  0  0
   -3.6726    0.2478   -2.7222 C   0  0  0  0  0  0  0  0  0  0  0  0
   -2.6211    0.5191   -3.5379 N   0  0  0  0  0  0  0  0  0  0  0  0
   -2.2995   -0.3180   -4.6621 C   0  0  0  0  0  0  0  0  0  0  0  0
   -4.4388   -0.6790   -2.8945 O   0  0  0  0  0  0  0  0  0  0  0  0
   -0.2940   -3.0290    2.9851 H   0  0  0  0  0  0  0  0  0  0  0  0
    0.8692   -2.7727    4.9573 H   0  0  0  0  0  0  0  0  0  0  0  0
    2.6105   -2.4103    4.8297 H   0  0  0  0  0  0  0  0  0  0  0  0
    1.7857   -3.3179    3.5421 H   0  0  0  0  0  0  0  0  0  0  0  0
    3.1264   -0.1988    4.2481 H   0  0  0  0  0  0  0  0  0  0  0  0
    2.6198    1.9703    3.1199 H   0  0  0  0  0  0  0  0  0  0  0  0
   -1.0926    5.3324    2.4250 H   0  0  0  0  0  0  0  0  0  0  0  0
   -1.6183    5.2980   -0.0218 H   0  0  0  0  0  0  0  0  0  0  0  0
   -1.5085    4.1605   -2.1628 H   0  0  0  0  0  0  0  0  0  0  0  0
    2.2303    0.4995    0.6330 H   0  0  0  0  0  0  0  0  0  0  0  0
    4.4120   -1.4749   -2.6862 H   0  0  0  0  0  0  0  0  0  0  0  0
    7.9252   -3.2026   -0.9909 H   0  0  0  0  0  0  0  0  0  0  0  0
    7.8557   -4.3727   -2.3446 H   0  0  0  0  0  0  0  0  0  0  0  0
    7.5677   -5.5091   -0.1028 H   0  0  0  0  0  0  0  0  0  0  0  0
    6.1058   -5.6732   -1.1238 H   0  0  0  0  0  0  0  0  0  0  0  0
    4.0659   -3.3976    1.8742 H   0  0  0  0  0  0  0  0  0  0  0  0
    2.4104   -1.6946    1.1423 H   0  0  0  0  0  0  0  0  0  0  0  0
    2.1436   -1.1630   -3.3156 H   0  0  0  0  0  0  0  0  0  0  0  0
    0.5432    0.6047   -4.0204 H   0  0  0  0  0  0  0  0  0  0  0  0
   -0.9614    0.2425    1.5057 H   0  0  0  0  0  0  0  0  0  0  0  0
   -3.7548   -2.0094    1.1719 H   0  0  0  0  0  0  0  0  0  0  0  0
   -2.4879   -0.0347    3.1992 H   0  0  0  0  0  0  0  0  0  0  0  0
   -4.2268   -0.1964    2.7894 H   0  0  0  0  0  0  0  0  0  0  0  0
   -3.0066   -0.4519   -0.2619 H   0  0  0  0  0  0  0  0  0  0  0  0
   -1.8278    0.7809   -0.7043 H   0  0  0  0  0  0  0  0  0  0  0  0
   -5.3217    0.9983   -0.0973 H   0  0  0  0  0  0  0  0  0  0  0  0
   -7.4963    1.7959   -0.1237 H   0  0  0  0  0  0  0  0  0  0  0  0
   -8.0027    0.8981   -1.5788 H   0  0  0  0  0  0  0  0  0  0  0  0
   -8.0619    2.6790   -1.5848 H   0  0  0  0  0  0  0  0  0  0  0  0
   -2.0143    1.3111   -3.3344 H   0  0  0  0  0  0  0  0  0  0  0  0
   -3.1500   -0.9893   -4.8384 H   0  0  0  0  0  0  0  0  0  0  0  0
   -1.4050   -0.9374   -4.4753 H   0  0  0  0  0  0  0  0  0  0  0  0
   -2.1249    0.2867   -5.5661 H   0  0  0  0  0  0  0  0  0  0  0  0
  1  2  2  0  0  0  0
  2  3  1  0  0  0  0
  3  4  1  0  0  0  0
  3 50  1  0  0  0  0
  4  5  1  0  0  0  0
  5  7  2  0  0  0  0
  5  6  1  0  0  0  0
  6 52  1  0  0  0  0
  6 51  1  0  0  0  0
  7 54  1  0  0  0  0
  8 55  1  0  0  0  0
  8  7  1  0  0  0  0
  9  8  2  0  0  0  0
 10  9  1  0  0  0  0
 10 11  1  0  0  0  0
 11 12  2  0  0  0  0
 13 11  1  0  0  0  0
 13 56  1  0  0  0  0
 14 13  2  0  0  0  0
 15 10  1  0  0  0  0
 16 15  1  0  0  0  0
 16 14  1  0  0  0  0
 17 16  2  0  0  0  0
 18 19  2  0  0  0  0
 18 17  1  0  0  0  0
 19 20  1  0  0  0  0
 20 21  1  0  0  0  0
 20 15  2  0  0  0  0
 21 59  1  0  0  0  0
 22 23  1  0  0  0  0
 22 21  2  0  0  0  0
 23 32  1  0  0  0  0
 24 25  1  0  0  0  0
 24 23  2  0  0  0  0
 25 30  2  0  0  0  0
 26 27  1  0  0  0  0
 26 25  1  0  0  0  0
 27 61  1  0  0  0  0
 27 28  1  0  0  0  0
 28 63  1  0  0  0  0
 28 29  1  0  0  0  0
 30 29  1  0  0  0  0
 30 31  1  0  0  0  0
 31 65  1  0  0  0  0
 32 31  2  0  0  0  0
 32 66  1  0  0  0  0
 33 22  1  0  0  0  0
 34 33  2  0  0  0  0
 34 19  1  0  0  0  0
 35  9  1  0  0  0  0
 35  4  2  0  0  0  0
 36  2  1  0  0  0  0
 36 37  1  0  0  0  0
 37 72  1  0  0  0  0
 37 71  1  0  0  0  0
 38 37  1  0  0  0  0
 39 73  1  0  0  0  0
 39 38  1  0  0  0  0
 40 41  1  6  0  0  0
 40 42  1  0  0  0  0
 40 39  1  0  0  0  0
 42 75  1  0  0  0  0
 43 44  1  0  0  0  0
 43 42  1  0  0  0  0
 44 76  1  0  0  0  0
 45 43  2  0  0  0  0
 46 40  1  0  0  0  0
 47 79  1  0  0  0  0
 47 46  1  0  0  0  0
 48 81  1  0  0  0  0
 48 47  1  0  0  0  0
 49 46  2  0  0  0  0
 53  6  1  0  0  0  0
 57 14  1  0  0  0  0
 58 17  1  0  0  0  0
 60 24  1  0  0  0  0
 62 27  1  0  0  0  0
 64 28  1  0  0  0  0
 67 33  1  0  0  0  0
 68 34  1  0  0  0  0
 69 35  1  0  0  0  0
 70 36  1  0  0  0  0
 74 39  1  0  0  0  0
 77 44  1  0  0  0  0
 78 44  1  0  0  0  0
 80 48  1  0  0  0  0
 82 48  1  0  0  0  0
M  END
