75
-1 1
O         1.873337    2.712882    1.486262
C         0.804035    2.165641    1.822540
N         0.961493    1.153893    2.872155
C         0.763098   -0.204806    2.737007
C         1.431432   -1.108804    3.605356
C         2.356328   -0.581216    4.666909
C         1.233428   -2.479492    3.439863
C         0.429318   -3.003948    2.428776
C        -0.196657   -2.105364    1.573248
N        -0.916525   -2.557764    0.409069
C        -2.144407   -3.223024    0.672541
O        -2.416697   -3.603276    1.791348
C        -3.037135   -3.372921   -0.470950
C        -2.701168   -2.918822   -1.694523
C        -0.520817   -2.168493   -0.859649
C        -1.421005   -2.314436   -1.921605
C        -1.095555   -1.774219   -3.194848
N        -0.022992   -1.089472   -3.454665
C         0.898548   -0.959335   -2.452662
C         0.762908   -1.566617   -1.170365
C         1.877891   -1.498395   -0.293072
C         2.978097   -0.716131   -0.569579
C         4.042923   -0.568929    0.461189
C         4.950766   -1.600338    0.727665
N         5.900239   -1.536964    1.659172
C         5.980429   -0.419113    2.378720
C         5.124379    0.667002    2.204076
C         4.130576    0.597903    1.229687
C         3.041376   -0.015286   -1.797408
C         2.046264   -0.173958   -2.728763
C        -0.073239   -0.735509    1.746245
C        -0.474378    2.486703    1.368700
C        -1.745203    2.049459    1.952845
S        -2.944562    1.012122    0.825112
C        -2.163182    1.110022   -0.804548
C        -2.763948    2.136357   -1.790447
H        -3.852554    1.967505   -1.836771
N        -2.207669    1.973454   -3.109203
C        -2.596556    1.008608   -3.971687
C        -1.864518    1.003833   -5.297345
O        -3.440937    0.168878   -3.690764
C        -2.490282    3.591700   -1.384451
N        -3.127443    4.001069   -0.266189
C        -2.788549    5.243321    0.384285
O        -1.753715    4.305490   -2.048413
H         1.820911    1.379954    3.360086
H         1.845953    0.147585    5.319044
H         3.226707   -0.069702    4.219452
H         2.742178   -1.394080    5.297492
H         1.748210   -3.165163    4.118818
H         0.307065   -4.077995    2.296062
H        -4.001209   -3.832810   -0.253572
H        -3.398740   -2.982968   -2.533307
H        -1.835414   -1.881071   -3.996496
H         1.872416   -2.042427    0.646174
H         4.893649   -2.528979    0.146767
H         6.767052   -0.386354    3.142202
H         5.220322    1.557033    2.830100
H         3.403595    1.417638    1.112530
H         3.898415    0.629315   -2.004474
H         2.092119    0.308465   -3.706268
H        -0.555013   -0.063874    1.043116
H        -0.484799    3.285004    0.621095
H        -2.396878    2.883778    2.257329
H        -1.599645    1.396392    2.824228
H        -2.265982    0.121297   -1.269269
H        -1.089690    1.321458   -0.646399
H        -1.554759    2.704291   -3.378239
H        -2.507680    0.544030   -6.057831
H        -0.958854    0.388335   -5.169179
H        -1.564758    2.011733   -5.618657
H        -3.566551    3.261933    0.282748
H        -2.440016    5.953659   -0.375894
H        -1.980160    5.105639    1.123287
H        -3.671984    5.658754    0.890235
