-1 1
 OpenBabel05192410563D

 75 79  0  0  1  0  0  0  0  0999 V2000
    1.8733    2.7129    1.4863 O   0  0  0  0  0  0  0  0  0  0  0  0
    0.8040    2.1656    1.8225 C   0  0  0  0  0  0  0  0  0  0  0  0
    0.9615    1.1539    2.8722 N   0  0  0  0  0  0  0  0  0  0  0  0
    0.7631   -0.2048    2.7370 C   0  0  0  0  0  0  0  0  0  0  0  0
    1.4314   -1.1088    3.6054 C   0  0  0  0  0  0  0  0  0  0  0  0
    2.3563   -0.5812    4.6669 C   0  0  0  0  0  0  0  0  0  0  0  0
    1.2334   -2.4795    3.4399 C   0  0  0  0  0  0  0  0  0  0  0  0
    0.4293   -3.0039    2.4288 C   0  0  0  0  0  0  0  0  0  0  0  0
   -0.1967   -2.1054    1.5732 C   0  0  0  0  0  0  0  0  0  0  0  0
   -0.9165   -2.5578    0.4091 N   0  0  0  0  0  0  0  0  0  0  0  0
   -2.1444   -3.2230    0.6725 C   0  0  0  0  0  0  0  0  0  0  0  0
   -2.4167   -3.6033    1.7913 O   0  0  0  0  0  0  0  0  0  0  0  0
   -3.0371   -3.3729   -0.4709 C   0  0  0  0  0  0  0  0  0  0  0  0
   -2.7012   -2.9188   -1.6945 C   0  0  0  0  0  0  0  0  0  0  0  0
   -0.5208   -2.1685   -0.8596 C   0  0  0  0  0  0  0  0  0  0  0  0
   -1.4210   -2.3144   -1.9216 C   0  0  0  0  0  0  0  0  0  0  0  0
   -1.0956   -1.7742   -3.1948 C   0  0  0  0  0  0  0  0  0  0  0  0
   -0.0230   -1.0895   -3.4547 N   0  0  0  0  0  0  0  0  0  0  0  0
    0.8985   -0.9593   -2.4527 C   0  0  0  0  0  0  0  0  0  0  0  0
    0.7629   -1.5666   -1.1704 C   0  0  0  0  0  0  0  0  0  0  0  0
    1.8779   -1.4984   -0.2931 C   0  0  0  0  0  0  0  0  0  0  0  0
    2.9781   -0.7161   -0.5696 C   0  0  0  0  0  0  0  0  0  0  0  0
    4.0429   -0.5689    0.4612 C   0  0  0  0  0  0  0  0  0  0  0  0
    4.9508   -1.6003    0.7277 C   0  0  0  0  0  0  0  0  0  0  0  0
    5.9002   -1.5370    1.6592 N   0  0  0  0  0  0  0  0  0  0  0  0
    5.9804   -0.4191    2.3787 C   0  0  0  0  0  0  0  0  0  0  0  0
    5.1244    0.6670    2.2041 C   0  0  0  0  0  0  0  0  0  0  0  0
    4.1306    0.5979    1.2297 C   0  0  0  0  0  0  0  0  0  0  0  0
    3.0414   -0.0153   -1.7974 C   0  0  0  0  0  0  0  0  0  0  0  0
    2.0463   -0.1740   -2.7288 C   0  0  0  0  0  0  0  0  0  0  0  0
   -0.0732   -0.7355    1.7462 C   0  0  0  0  0  0  0  0  0  0  0  0
   -0.4744    2.4867    1.3687 C   0  0  0  0  0  3  0  0  0  0  0  0
   -1.7452    2.0495    1.9528 C   0  0  0  0  0  0  0  0  0  0  0  0
   -2.9446    1.0121    0.8251 S   0  0  0  0  0  0  0  0  0  0  0  0
   -2.1632    1.1100   -0.8045 C   0  0  0  0  0  0  0  0  0  0  0  0
   -2.7639    2.1364   -1.7904 C   0  0  2  0  0  0  0  0  0  0  0  0
   -3.8526    1.9675   -1.8368 H   0  0  0  0  0  0  0  0  0  0  0  0
   -2.2077    1.9735   -3.1092 N   0  0  0  0  0  0  0  0  0  0  0  0
   -2.5966    1.0086   -3.9717 C   0  0  0  0  0  0  0  0  0  0  0  0
   -1.8645    1.0038   -5.2973 C   0  0  0  0  0  0  0  0  0  0  0  0
   -3.4409    0.1689   -3.6908 O   0  0  0  0  0  0  0  0  0  0  0  0
   -2.4903    3.5917   -1.3845 C   0  0  0  0  0  0  0  0  0  0  0  0
   -3.1274    4.0011   -0.2662 N   0  0  0  0  0  0  0  0  0  0  0  0
   -2.7885    5.2433    0.3843 C   0  0  0  0  0  0  0  0  0  0  0  0
   -1.7537    4.3055   -2.0484 O   0  0  0  0  0  0  0  0  0  0  0  0
    1.8209    1.3800    3.3601 H   0  0  0  0  0  0  0  0  0  0  0  0
    1.8460    0.1476    5.3190 H   0  0  0  0  0  0  0  0  0  0  0  0
    3.2267   -0.0697    4.2195 H   0  0  0  0  0  0  0  0  0  0  0  0
    2.7422   -1.3941    5.2975 H   0  0  0  0  0  0  0  0  0  0  0  0
    1.7482   -3.1652    4.1188 H   0  0  0  0  0  0  0  0  0  0  0  0
    0.3071   -4.0780    2.2961 H   0  0  0  0  0  0  0  0  0  0  0  0
   -4.0012   -3.8328   -0.2536 H   0  0  0  0  0  0  0  0  0  0  0  0
   -3.3987   -2.9830   -2.5333 H   0  0  0  0  0  0  0  0  0  0  0  0
   -1.8354   -1.8811   -3.9965 H   0  0  0  0  0  0  0  0  0  0  0  0
    1.8724   -2.0424    0.6462 H   0  0  0  0  0  0  0  0  0  0  0  0
    4.8936   -2.5290    0.1468 H   0  0  0  0  0  0  0  0  0  0  0  0
    6.7671   -0.3864    3.1422 H   0  0  0  0  0  0  0  0  0  0  0  0
    5.2203    1.5570    2.8301 H   0  0  0  0  0  0  0  0  0  0  0  0
    3.4036    1.4176    1.1125 H   0  0  0  0  0  0  0  0  0  0  0  0
    3.8984    0.6293   -2.0045 H   0  0  0  0  0  0  0  0  0  0  0  0
    2.0921    0.3085   -3.7063 H   0  0  0  0  0  0  0  0  0  0  0  0
   -0.5550   -0.0639    1.0431 H   0  0  0  0  0  0  0  0  0  0  0  0
   -0.4848    3.2850    0.6211 H   0  0  0  0  0  0  0  0  0  0  0  0
   -2.3969    2.8838    2.2573 H   0  0  0  0  0  0  0  0  0  0  0  0
   -1.5996    1.3964    2.8242 H   0  0  0  0  0  0  0  0  0  0  0  0
   -2.2660    0.1213   -1.2693 H   0  0  0  0  0  0  0  0  0  0  0  0
   -1.0897    1.3215   -0.6464 H   0  0  0  0  0  0  0  0  0  0  0  0
   -1.5548    2.7043   -3.3782 H   0  0  0  0  0  0  0  0  0  0  0  0
   -2.5077    0.5440   -6.0578 H   0  0  0  0  0  0  0  0  0  0  0  0
   -0.9589    0.3883   -5.1692 H   0  0  0  0  0  0  0  0  0  0  0  0
   -1.5648    2.0117   -5.6187 H   0  0  0  0  0  0  0  0  0  0  0  0
   -3.5666    3.2619    0.2827 H   0  0  0  0  0  0  0  0  0  0  0  0
   -2.4400    5.9537   -0.3759 H   0  0  0  0  0  0  0  0  0  0  0  0
   -1.9802    5.1056    1.1233 H   0  0  0  0  0  0  0  0  0  0  0  0
   -3.6720    5.6588    0.8902 H   0  0  0  0  0  0  0  0  0  0  0  0
  1  2  2  0  0  0  0
  2  3  1  0  0  0  0
  3 46  1  0  0  0  0
  4  3  1  0  0  0  0
  4  5  1  0  0  0  0
  5  6  1  0  0  0  0
  6 49  1  0  0  0  0
  6 47  1  0  0  0  0
  7  5  2  0  0  0  0
  7 50  1  0  0  0  0
  8  7  1  0  0  0  0
  9 31  1  0  0  0  0
  9  8  2  0  0  0  0
 10 11  1  0  0  0  0
 10  9  1  0  0  0  0
 11 12  2  0  0  0  0
 13 52  1  0  0  0  0
 13 11  1  0  0  0  0
 14 13  2  0  0  0  0
 15 10  1  0  0  0  0
 16 14  1  0  0  0  0
 16 15  2  0  0  0  0
 17 16  1  0  0  0  0
 18 17  2  0  0  0  0
 18 19  1  0  0  0  0
 19 20  1  0  0  0  0
 20 15  1  0  0  0  0
 20 21  2  0  0  0  0
 21 55  1  0  0  0  0
 22 21  1  0  0  0  0
 22 23  1  0  0  0  0
 23 24  2  0  0  0  0
 23 28  1  0  0  0  0
 24 25  1  0  0  0  0
 25 26  2  0  0  0  0
 26 57  1  0  0  0  0
 27 26  1  0  0  0  0
 27 58  1  0  0  0  0
 28 27  2  0  0  0  0
 29 22  2  0  0  0  0
 30 19  2  0  0  0  0
 30 29  1  0  0  0  0
 31  4  2  0  0  0  0
 32  2  1  0  0  0  0
 32 33  1  0  0  0  0
 33 64  1  0  0  0  0
 33 65  1  0  0  0  0
 34 33  1  0  0  0  0
 35 67  1  0  0  0  0
 35 34  1  0  0  0  0
 36 37  1  6  0  0  0
 36 42  1  0  0  0  0
 36 35  1  0  0  0  0
 38 36  1  0  0  0  0
 39 41  2  0  0  0  0
 39 38  1  0  0  0  0
 40 70  1  0  0  0  0
 40 39  1  0  0  0  0
 42 43  1  0  0  0  0
 43 72  1  0  0  0  0
 43 44  1  0  0  0  0
 44 75  1  0  0  0  0
 44 74  1  0  0  0  0
 45 42  2  0  0  0  0
 48  6  1  0  0  0  0
 51  8  1  0  0  0  0
 53 14  1  0  0  0  0
 54 17  1  0  0  0  0
 56 24  1  0  0  0  0
 59 28  1  0  0  0  0
 60 29  1  0  0  0  0
 61 30  1  0  0  0  0
 62 31  1  0  0  0  0
 63 32  1  0  0  0  0
 66 35  1  0  0  0  0
 68 38  1  0  0  0  0
 69 40  1  0  0  0  0
 71 40  1  0  0  0  0
 73 44  1  0  0  0  0
M  END
