75
-1 1
O         5.582076   -7.034838   -2.826743
C         4.618696   -7.673072   -2.397683
N         4.934705   -8.742994   -1.505675
C         4.544364  -10.077867   -1.564906
C         5.130428  -10.997836   -0.663396
C         6.112265  -10.517563    0.369152
C         4.802790  -12.350225   -0.775185
C         3.951365  -12.826912   -1.769010
C         3.408514  -11.908631   -2.659994
N         2.678113  -12.343619   -3.819781
C         1.393363  -12.895604   -3.556095
O         1.083440  -13.224344   -2.431554
C         0.509920  -13.005336   -4.710224
C         0.915364  -12.657988   -5.946659
C         3.135144  -12.053726   -5.094540
C         2.253645  -12.191217   -6.171924
C         2.650441  -11.749913   -7.462652
N         3.770019  -11.144423   -7.726200
C         4.663741  -11.007411   -6.702047
C         4.462813  -11.548353   -5.398515
C         5.554823  -11.485083   -4.492297
C         6.680135  -10.733271   -4.755963
C         7.689980  -10.535855   -3.683523
C         8.394915  -11.608618   -3.122738
N         9.280649  -11.485938   -2.136976
C         9.503164  -10.264685   -1.654396
C         8.848059   -9.126671   -2.122526
C         7.921367   -9.261337   -3.153480
C         6.808451  -10.090913   -6.011253
C         5.847682  -10.274076   -6.972981
C         3.653038  -10.549099   -2.531146
C         3.252237   -7.291881   -2.622911
C         2.131409   -7.761648   -1.950207
S         0.654806   -9.112296   -3.292593
C         1.503480   -8.843596   -4.864505
C         0.812395   -7.885268   -5.861811
H        -0.244631   -8.186804   -5.942632
N         1.421360   -7.950303   -7.168124
C         1.150440   -8.913774   -8.073272
C         1.917949   -8.807342   -9.375801
O         0.382900   -9.841948   -7.853797
C         0.896396   -6.417789   -5.420856
N         0.274878   -6.143547   -4.256395
C         0.427824   -4.868752   -3.604167
O         1.489203   -5.583116   -6.093220
H         5.898049   -8.623233   -1.210453
H         5.699779   -9.676936    0.950555
H         7.047197  -10.164156   -0.100090
H         6.382306  -11.323640    1.064980
H         5.250724  -13.056481   -0.070943
H         3.732231  -13.889128   -1.869169
H        -0.501438  -13.348285   -4.493196
H         0.231061  -12.689351   -6.797359
H         1.928668  -11.857104   -8.279518
H         5.504990  -11.993025   -3.534921
H         8.221797  -12.621587   -3.505125
H        10.235396  -10.186595   -0.842172
H         9.041190   -8.149189   -1.675700
H         7.336301   -8.397879   -3.488865
H         7.689731   -9.478594   -6.215792
H         5.943984   -9.844393   -7.971211
H         3.227023   -9.861707   -3.254933
H         3.162238   -6.429982   -3.289800
H         1.291962   -7.083767   -1.802597
H         2.249718   -8.507396   -1.160054
H         1.609749   -9.804165   -5.384041
H         2.524150   -8.454437   -4.657495
H         1.965703   -7.127851   -7.412882
H         1.294289   -9.200173  -10.188943
H         2.815002   -9.441163   -9.282412
H         2.231105   -7.779284   -9.607283
H         0.008426   -6.970438   -3.704583
H         0.558249   -4.089893   -4.366780
H         1.311405   -4.846164   -2.941424
H        -0.466097   -4.642370   -3.004942
