-1 1
 OpenBabel05232414493D

 74 77  0  0  1  0  0  0  0  0999 V2000
    4.7231   -6.7673   -0.3031 O   0  0  0  0  0  0  0  0  0  0  0  0
    4.0941   -6.3371   -1.2621 C   0  0  0  0  0  0  0  0  0  0  0  0
    3.2317   -7.2958   -1.9111 N   0  0  0  0  0  0  0  0  0  0  0  0
    1.8600   -7.2735   -2.1040 C   0  0  0  0  0  0  0  0  0  0  0  0
    1.0677   -6.1174   -2.0002 C   0  0  0  0  0  0  0  0  0  0  0  0
   -0.3083   -6.2077   -2.1961 C   0  0  0  0  0  0  0  0  0  0  0  0
   -1.1023   -5.0111   -2.0711 N   0  0  0  0  0  0  0  0  0  0  0  0
   -1.8155   -4.9331   -0.8392 C   0  0  0  0  0  0  0  0  0  0  0  0
   -1.8768   -5.8976   -0.1034 O   0  0  0  0  0  0  0  0  0  0  0  0
   -2.3767   -3.6325   -0.5178 C   0  0  0  0  0  0  0  0  0  0  0  0
   -2.2735   -2.5962   -1.3725 C   0  0  0  0  0  0  0  0  0  0  0  0
   -1.1216   -4.0045   -3.0272 C   0  0  0  0  0  0  0  0  0  0  0  0
   -1.6838   -2.7755   -2.6658 C   0  0  0  0  0  0  0  0  0  0  0  0
   -1.6571   -1.6937   -3.5849 C   0  0  0  0  0  0  0  0  0  0  0  0
   -1.1637   -1.7478   -4.7823 N   0  0  0  0  0  0  0  0  0  0  0  0
   -0.6414   -2.9438   -5.1869 C   0  0  0  0  0  0  0  0  0  0  0  0
   -0.6027   -4.1185   -4.3775 C   0  0  0  0  0  0  0  0  0  0  0  0
   -0.0559   -5.2894   -4.9597 C   0  0  0  0  0  0  0  0  0  0  0  0
    0.4890   -5.3088   -6.2304 C   0  0  0  0  0  0  0  0  0  0  0  0
    1.1112   -6.5509   -6.7484 C   0  0  0  0  0  0  0  0  0  0  0  0
    0.9956   -6.9433   -8.0837 C   0  0  0  0  0  0  0  0  0  0  0  0
    1.5439   -8.0408   -8.6020 N   0  0  0  0  0  0  0  0  0  0  0  0
    2.2481   -8.8386   -7.8000 C   0  0  0  0  0  0  0  0  0  0  0  0
    2.7686   -9.9836   -8.3677 N   0  0  0  0  0  0  0  0  0  0  0  0
    2.4277   -8.5525   -6.4323 C   0  0  0  0  0  0  0  0  0  0  0  0
    1.8603   -7.4021   -5.9175 C   0  0  0  0  0  0  0  0  0  0  0  0
    0.4647   -4.1236   -7.0042 C   0  0  0  0  0  0  0  0  0  0  0  0
   -0.1004   -2.9831   -6.4949 C   0  0  0  0  0  0  0  0  0  0  0  0
   -0.9413   -7.4145   -2.4780 C   0  0  0  0  0  0  0  0  0  0  0  0
   -0.1554   -8.5561   -2.5984 C   0  0  0  0  0  0  0  0  0  0  0  0
    1.2202   -8.4896   -2.4211 C   0  0  0  0  0  0  0  0  0  0  0  0
    4.3113   -5.0475   -1.8512 C   0  0  0  0  0  3  0  0  0  0  0  0
    3.9146   -4.6245   -3.1114 C   0  0  0  0  0  3  0  0  0  0  0  0
    2.2370   -2.9460   -3.1723 S   0  0  0  0  0  1  0  0  0  0  0  0
    2.8290   -2.0078   -1.7336 C   0  0  0  0  0  0  0  0  0  0  0  0
    1.6917   -1.4923   -0.8411 C   0  0  2  0  0  0  0  0  0  0  0  0
    2.1302   -0.9305    0.0014 H   0  0  0  0  0  0  0  0  0  0  0  0
    0.9940   -2.5923   -0.2289 N   0  0  0  0  0  0  0  0  0  0  0  0
    1.0936   -2.8629    1.1024 C   0  0  0  0  0  0  0  0  0  0  0  0
    0.4808   -4.1787    1.5340 C   0  0  0  0  0  0  0  0  0  0  0  0
    1.6197   -2.1022    1.8951 O   0  0  0  0  0  0  0  0  0  0  0  0
    0.7039   -0.4930   -1.4769 C   0  0  0  0  0  0  0  0  0  0  0  0
    1.0721    0.0091   -2.6855 N   0  0  0  0  0  0  0  0  0  0  0  0
    0.2908    0.9996   -3.3819 C   0  0  0  0  0  0  0  0  0  0  0  0
   -0.2935   -0.1274   -0.8759 O   0  0  0  0  0  0  0  0  0  0  0  0
    3.5538   -8.2122   -1.6158 H   0  0  0  0  0  0  0  0  0  0  0  0
    1.5302   -5.1463   -1.8131 H   0  0  0  0  0  0  0  0  0  0  0  0
   -2.8397   -3.5463    0.4651 H   0  0  0  0  0  0  0  0  0  0  0  0
   -2.6258   -1.5995   -1.0996 H   0  0  0  0  0  0  0  0  0  0  0  0
   -2.0661   -0.7346   -3.2440 H   0  0  0  0  0  0  0  0  0  0  0  0
   -0.0618   -6.2207   -4.4075 H   0  0  0  0  0  0  0  0  0  0  0  0
    0.4093   -6.3305   -8.7786 H   0  0  0  0  0  0  0  0  0  0  0  0
    2.7909   -9.9679   -9.3795 H   0  0  0  0  0  0  0  0  0  0  0  0
    3.5813  -10.3902   -7.9258 H   0  0  0  0  0  0  0  0  0  0  0  0
    3.0109   -9.2189   -5.7935 H   0  0  0  0  0  0  0  0  0  0  0  0
    2.0091   -7.1527   -4.8643 H   0  0  0  0  0  0  0  0  0  0  0  0
    0.9178   -4.1138   -7.9983 H   0  0  0  0  0  0  0  0  0  0  0  0
   -0.1305   -2.0533   -7.0645 H   0  0  0  0  0  0  0  0  0  0  0  0
   -2.0228   -7.4462   -2.6061 H   0  0  0  0  0  0  0  0  0  0  0  0
   -0.6209   -9.5162   -2.8317 H   0  0  0  0  0  0  0  0  0  0  0  0
    1.8255   -9.3949   -2.5184 H   0  0  0  0  0  0  0  0  0  0  0  0
    5.0275   -4.4472   -1.2855 H   0  0  0  0  0  0  0  0  0  0  0  0
    3.3632   -5.3094   -3.7621 H   0  0  0  0  0  0  0  0  0  0  0  0
    4.5444   -3.9129   -3.6431 H   0  0  0  0  0  0  0  0  0  0  0  0
    3.4720   -1.1657   -2.0378 H   0  0  0  0  0  0  0  0  0  0  0  0
    3.4448   -2.6815   -1.1111 H   0  0  0  0  0  0  0  0  0  0  0  0
    0.6627   -3.3104   -0.8627 H   0  0  0  0  0  0  0  0  0  0  0  0
   -0.5962   -4.0490    1.7149 H   0  0  0  0  0  0  0  0  0  0  0  0
    0.9555   -4.4901    2.4719 H   0  0  0  0  0  0  0  0  0  0  0  0
    0.5967   -4.9710    0.7812 H   0  0  0  0  0  0  0  0  0  0  0  0
    1.6967   -0.5723   -3.2420 H   0  0  0  0  0  0  0  0  0  0  0  0
   -0.1684    0.5759   -4.2896 H   0  0  0  0  0  0  0  0  0  0  0  0
    0.9139    1.8628   -3.6684 H   0  0  0  0  0  0  0  0  0  0  0  0
   -0.5021    1.3464   -2.7062 H   0  0  0  0  0  0  0  0  0  0  0  0
  2  1  2  0  0  0  0
  3 46  1  0  0  0  0
  3  2  1  0  0  0  0
  4  5  1  0  0  0  0
  4  3  1  0  0  0  0
  5 47  1  0  0  0  0
  6  7  1  0  0  0  0
  6  5  2  0  0  0  0
  7  8  1  0  0  0  0
  8 10  1  0  0  0  0
  8  9  2  0  0  0  0
 10 48  1  0  0  0  0
 11 49  1  0  0  0  0
 11 10  2  0  0  0  0
 12 13  1  0  0  0  0
 12  7  1  0  0  0  0
 13 11  1  0  0  0  0
 14 50  1  0  0  0  0
 14 13  2  0  0  0  0
 15 14  1  0  0  0  0
 16 15  2  0  0  0  0
 16 17  1  0  0  0  0
 17 12  2  0  0  0  0
 18 51  1  0  0  0  0
 18 17  1  0  0  0  0
 19 18  2  0  0  0  0
 20 19  1  0  0  0  0
 20 26  1  0  0  0  0
 21 20  2  0  0  0  0
 22 21  1  0  0  0  0
 22 23  2  0  0  0  0
 23 25  1  0  0  0  0
 24 54  1  0  0  0  0
 24 23  1  0  0  0  0
 25 26  2  0  0  0  0
 25 55  1  0  0  0  0
 26 56  1  0  0  0  0
 27 28  2  0  0  0  0
 27 19  1  0  0  0  0
 28 16  1  0  0  0  0
 29  6  1  0  0  0  0
 30 29  2  0  0  0  0
 30 31  1  0  0  0  0
 31  4  2  0  0  0  0
 32 62  1  0  0  0  0
 32  2  1  0  0  0  0
 33 32  1  0  0  0  0
 34 35  1  0  0  0  0
 35 66  1  0  0  0  0
 35 36  1  0  0  0  0
 36 38  1  0  0  0  0
 36 37  1  1  0  0  0
 38 39  1  0  0  0  0
 39 40  1  0  0  0  0
 39 41  2  0  0  0  0
 40 68  1  0  0  0  0
 40 69  1  0  0  0  0
 42 45  2  0  0  0  0
 42 36  1  0  0  0  0
 43 42  1  0  0  0  0
 44 74  1  0  0  0  0
 44 43  1  0  0  0  0
 52 21  1  0  0  0  0
 53 24  1  0  0  0  0
 57 27  1  0  0  0  0
 58 28  1  0  0  0  0
 59 29  1  0  0  0  0
 60 30  1  0  0  0  0
 61 31  1  0  0  0  0
 63 33  1  0  0  0  0
 64 33  1  0  0  0  0
 65 35  1  0  0  0  0
 67 38  1  0  0  0  0
 70 40  1  0  0  0  0
 71 43  1  0  0  0  0
 72 44  1  0  0  0  0
 73 44  1  0  0  0  0
M  END
